
  corina  04301012133D 1   1.00000     0.00000 
CORINA 3.46 0026  05.08.2008
 25 27  0  0  0  0  0  0  0  0999 V2000
   -0.4260    2.3543   -0.6162 C   0  0  2  0  0  0  0  0  0  0  0  0
   -0.1333    0.8394   -0.4771 C   0  0  2  0  0  0  0  0  0  0  0  0
    0.9829    0.6711   -1.3838 O   0  0  0  0  0  0  0  0  0  0  0  0
    1.7501    1.8795   -1.2506 C   0  0  2  0  0  0  0  0  0  0  0  0
    0.8868    2.9259   -0.7868 O   0  0  0  0  0  0  0  0  0  0  0  0
    2.3418    2.2649   -2.6079 C   0  0  0  0  0  0  0  0  0  0  0  0
    2.8811    1.6620   -0.2435 C   0  0  0  0  0  0  0  0  0  0  0  0
   -1.0906    2.8951    0.6514 C   0  0  0  0  0  0  0  0  0  0  0  0
   -1.3168    0.0184   -0.9201 C   0  0  0  0  0  0  0  0  0  0  0  0
   -1.4540    4.2627    0.4523 O   0  0  0  0  0  0  0  0  0  0  0  0
   -2.0859    4.8667    1.5827 C   0  0  0  0  0  0  0  0  0  0  0  0
   -2.4239    6.3001    1.2629 C   0  0  0  0  0  0  0  0  0  0  0  0
   -3.6482    6.6131    0.7026 C   0  0  0  0  0  0  0  0  0  0  0  0
   -3.9581    7.9280    0.4092 C   0  0  0  0  0  0  0  0  0  0  0  0
   -3.0440    8.9298    0.6766 C   0  0  0  0  0  0  0  0  0  0  0  0
   -1.8200    8.6169    1.2378 C   0  0  0  0  0  0  0  0  0  0  0  0
   -1.5118    7.3026    1.5352 C   0  0  0  0  0  0  0  0  0  0  0  0
   -1.7174    0.0865   -2.3649 C   0  0  0  0  0  0  0  0  0  0  0  0
   -3.1214   -0.1254   -2.5253 O   0  0  0  0  0  0  0  0  0  0  0  0
   -3.4536   -1.5061   -2.6673 C   0  0  1  0  0  0  0  0  0  0  0  0
   -3.0735   -2.2326   -1.5053 O   0  0  0  0  0  0  0  0  0  0  0  0
   -3.1975   -1.4489   -0.3131 C   0  0  0  0  0  0  0  0  0  0  0  0
   -1.9225   -0.7082   -0.0265 C   0  0  0  0  0  0  0  0  0  0  0  0
   -4.9629   -1.6433   -2.8772 C   0  0  0  0  0  0  0  0  0  0  0  0
   -2.7216   -2.0790   -3.8826 C   0  0  0  0  0  0  0  0  0  0  0  0
  1  2  1  0  0  0  0
  2  3  1  0  0  0  0
  3  4  1  0  0  0  0
  4  5  1  0  0  0  0
  5  1  1  0  0  0  0
  4  6  1  0  0  0  0
  4  7  1  0  0  0  0
  1  8  1  0  0  0  0
  2  9  1  0  0  0  0
  8 10  1  0  0  0  0
 10 11  1  0  0  0  0
 11 12  1  0  0  0  0
 12 13  2  0  0  0  0
 13 14  1  0  0  0  0
 14 15  2  0  0  0  0
 15 16  1  0  0  0  0
 16 17  2  0  0  0  0
 17 12  1  0  0  0  0
  9 18  1  0  0  0  0
 18 19  1  0  0  0  0
 19 20  1  0  0  0  0
 20 21  1  0  0  0  0
 21 22  1  0  0  0  0
 22 23  1  0  0  0  0
 23  9  2  0  0  0  0
 20 24  1  0  0  0  0
 20 25  1  0  0  0  0
M  END
$$$$
