
  corina  12080917093D 1   1.00000     0.00000 
CORINA 3.46 0026  05.08.2008
 34 35  0  0  0  0  0  0  0  0999 V2000
   -0.0173    1.4248    0.0099 C   0  0  2  0  0  0  0  0  0  0  0  0
    1.4195    1.9533   -0.0010 C   0  0  1  0  0  0  0  0  0  0  0  0
    2.1706    1.3929    1.2107 C   0  0  1  0  0  0  0  0  0  0  0  0
    2.1137   -0.1373    1.1698 C   0  0  2  0  0  0  0  0  0  0  0  0
    0.6501   -0.5850    1.1355 C   0  0  1  0  0  0  0  0  0  0  0  0
    0.0021   -0.0041    0.0020 O   0  0  0  0  0  0  0  0  0  0  0  0
    0.5881   -2.0455    1.0383 N   0  0  0  0  0  0  0  0  0  0  0  0
   -0.0022   -2.7312    1.9637 C   0  0  0  0  0  0  0  0  0  0  0  0
   -0.0646   -4.2005    1.8659 C   0  0  0  0  0  0  0  0  0  0  0  0
   -0.7012   -4.9444    2.8633 C   0  0  0  0  0  0  0  0  0  0  0  0
   -0.7574   -6.3183    2.7683 C   0  0  0  0  0  0  0  0  0  0  0  0
   -0.1851   -6.9686    1.6881 C   0  0  0  0  0  0  0  0  0  0  0  0
    0.4497   -6.2451    0.6920 C   0  0  0  0  0  0  0  0  0  0  0  0
    0.5088   -4.8578    0.7704 C   0  0  0  0  0  0  0  0  0  0  0  0
    1.1299   -4.1450   -0.2045 O   0  0  0  0  0  0  0  0  0  0  0  0
    1.0104   -6.8909   -0.3655 O   0  0  0  0  0  0  0  0  0  0  0  0
    0.9071   -8.3160   -0.3842 C   0  0  0  0  0  0  0  0  0  0  0  0
   -2.1500    1.5286   -1.1610 O   0  0  0  0  0  0  0  0  0  0  0  0
   -2.9422    1.8972   -2.1800 C   0  0  0  0  0  0  0  0  0  0  0  0
   -2.4866    2.5357   -3.0990 O   0  0  0  0  0  0  0  0  0  0  0  0
   -4.3998    1.5146   -2.1777 C   0  0  0  0  0  0  0  0  0  0  0  0
    2.0829    1.5302   -1.2213 O   0  0  0  0  0  0  0  0  0  0  0  0
    1.9960    2.3525   -2.2787 C   0  0  0  0  0  0  0  0  0  0  0  0
    2.6595    1.9799   -3.5795 C   0  0  0  0  0  0  0  0  0  0  0  0
    1.3858    3.3914   -2.1876 O   0  0  0  0  0  0  0  0  0  0  0  0
    3.5549    1.8288    1.1682 O   0  0  0  0  0  0  0  0  0  0  0  0
    4.1804    1.9869    2.3453 C   0  0  0  0  0  0  0  0  0  0  0  0
    5.6182    2.4371    2.3800 C   0  0  0  0  0  0  0  0  0  0  0  0
    3.5907    1.7683    3.3769 O   0  0  0  0  0  0  0  0  0  0  0  0
    2.7591   -0.6786    2.3525 O   0  0  0  0  0  0  0  0  0  0  0  0
    3.3485   -1.8783    2.2299 C   0  0  0  0  0  0  0  0  0  0  0  0
    3.3258   -2.4570    1.1695 O   0  0  0  0  0  0  0  0  0  0  0  0
    4.0384   -2.5035    3.4149 C   0  0  0  0  0  0  0  0  0  0  0  0
   -0.7569    1.9319   -1.2298 C   0  0  0  0  0  0  0  0  0  0  0  0
  7  8  2  0  0  0  0
 16 17  1  0  0  0  0
  1  6  1  0  0  0  0
 34 18  1  0  0  0  0
  8  9  1  0  0  0  0
 18 19  1  0  0  0  0
  2  3  1  0  0  0  0
 19 20  2  0  0  0  0
  9 10  2  0  0  0  0
 19 21  1  0  0  0  0
  3  4  1  0  0  0  0
  2 22  1  0  0  0  0
 10 11  1  0  0  0  0
 22 23  1  0  0  0  0
  4  5  1  0  0  0  0
 23 24  1  0  0  0  0
 11 12  2  0  0  0  0
 23 25  2  0  0  0  0
  5  6  1  0  0  0  0
  3 26  1  0  0  0  0
 12 13  1  0  0  0  0
 26 27  1  0  0  0  0
 27 28  1  0  0  0  0
 13 14  2  0  0  0  0
 27 29  2  0  0  0  0
 14  9  1  0  0  0  0
  4 30  1  0  0  0  0
  5  7  1  0  0  0  0
 30 31  1  0  0  0  0
 14 15  1  0  0  0  0
 31 32  2  0  0  0  0
  1  2  1  0  0  0  0
 31 33  1  0  0  0  0
 13 16  1  0  0  0  0
  1 34  1  0  0  0  0
M  END
$$$$
