m490.mol
  corina  12080917093D 1   1.00000     0.00000 
CORINA 3.46 0026  05.08.2008
 25 27  0  0  0  0  0  0  0  0999 V2000
    0.0508    1.3830    0.0171 C   0  0  0  0  0  0  0  0  0  0  0  0
   -0.0528    0.0312   -0.0894 N   0  0  0  0  0  0  0  0  0  0  0  0
    1.2293   -0.5158    0.0498 N   0  0  0  0  0  0  0  0  0  0  0  0
    2.0808    0.4773    0.2349 C   0  0  0  0  0  0  0  0  0  0  0  0
    1.3498    1.6868    0.2167 C   0  0  0  0  0  0  0  0  0  0  0  0
    3.5329    0.3472    0.4267 C   0  0  0  0  0  0  0  0  0  0  0  0
    4.3923    1.3118    0.6118 N   0  0  0  0  0  0  0  0  0  0  0  0
    5.6913    0.8368    0.7596 N   0  0  0  0  0  0  0  0  0  0  0  0
    5.7591   -0.4524    0.6810 C   0  0  0  0  0  0  0  0  0  0  0  0
    4.3401   -0.9357    0.4569 C   0  0  0  0  0  0  0  0  0  0  0  0
    6.9981   -1.3027    0.7944 C   0  0  0  0  0  0  0  0  0  0  0  0
    8.2286   -0.3995    0.8998 C   0  0  0  0  0  0  0  0  0  0  0  0
    6.9015   -2.1807    2.0437 C   0  0  0  0  0  0  0  0  0  0  0  0
   -1.0851    2.3688   -0.0778 C   0  0  0  0  0  0  0  0  0  0  0  0
   -0.8644    3.4996    0.9289 C   0  0  0  0  0  0  0  0  0  0  0  0
   -1.1402    2.9489   -1.4924 C   0  0  0  0  0  0  0  0  0  0  0  0
   -1.2355   -0.6888   -0.3007 C   0  0  0  0  0  0  0  0  0  0  0  0
   -1.4796   -1.8522    0.4173 C   0  0  0  0  0  0  0  0  0  0  0  0
   -2.6469   -2.5596    0.2070 C   0  0  0  0  0  0  0  0  0  0  0  0
   -3.5722   -2.1106   -0.7174 C   0  0  0  0  0  0  0  0  0  0  0  0
   -3.3319   -0.9527   -1.4343 C   0  0  0  0  0  0  0  0  0  0  0  0
   -2.1691   -0.2377   -1.2245 C   0  0  0  0  0  0  0  0  0  0  0  0
   -4.8224   -2.8712   -0.9403 N   0  3  0  0  0  0  0  0  0  0  0  0
   -5.0352   -3.8914   -0.3099 O   0  5  0  0  0  0  0  0  0  0  0  0
   -5.6382   -2.4769   -1.7542 O   0  0  0  0  0  0  0  0  0  0  0  0
  1  2  1  0  0  0
  2  3  1  0  0  0
  3  4  2  0  0  0
  4  5  1  0  0  0
  5  1  2  0  0  0
  4  6  1  0  0  0
  6  7  2  0  0  0
  7  8  1  0  0  0
  8  9  2  0  0  0
  9 10  1  0  0  0
 10  6  1  0  0  0
  9 11  1  0  0  0
 11 12  1  0  0  0
 11 13  1  0  0  0
  1 14  1  0  0  0
 14 15  1  0  0  0
 14 16  1  0  0  0
  2 17  1  0  0  0
 17 18  2  0  0  0
 18 19  1  0  0  0
 19 20  2  0  0  0
 20 21  1  0  0  0
 21 22  2  0  0  0
 22 17  1  0  0  0
 20 23  1  0  0  0
 23 24  1  0  0  0
 23 25  2  0  0  0
M  END
$$$$
