
  corina  12080917083D 1   1.00000     0.00000 
CORINA 3.46 0026  05.08.2008
 30 34  0  0  0  0  0  0  0  0999 V2000
   -0.0162    1.3418    0.0094 C   0  0  0  0  0  0  0  0  0  0  0  0
    1.3037    1.7778   -0.0008 C   0  0  0  0  0  0  0  0  0  0  0  0
    2.0888    0.6463   -0.0144 N   0  0  3  0  0  0  0  0  0  0  0  0
    1.2444   -0.4283   -0.0121 C   0  0  0  0  0  0  0  0  0  0  0  0
    0.0021   -0.0041    0.0020 N   0  0  0  0  0  0  0  0  0  0  0  0
    0.5691    4.1564    0.0198 C   0  0  0  0  0  0  0  0  0  0  0  0
    0.8559    5.4560    0.0245 N   0  0  0  0  0  0  0  0  0  0  0  0
    2.0975    5.8854    0.0150 C   0  0  0  0  0  0  0  0  0  0  0  0
    3.1703    5.0032   -0.0004 C   0  0  0  0  0  0  0  0  0  0  0  0
    2.9400    3.6534   -0.0055 C   0  0  0  0  0  0  0  0  0  0  0  0
    1.6101    3.2051    0.0043 C   0  0  0  0  0  0  0  0  0  0  0  0
   -1.1105    2.3209    0.0197 C   0  0  0  0  0  0  0  0  0  0  0  0
   -0.8296    3.7009    0.0255 C   0  0  0  0  0  0  0  0  0  0  0  0
   -3.0832    4.2046    0.0386 C   0  0  0  0  0  0  0  0  0  0  0  0
   -1.8254    4.5839    0.0346 N   0  0  0  0  0  0  0  0  0  0  0  0
   -2.4458    1.8984    0.0245 C   0  0  0  0  0  0  0  0  0  0  0  0
   -3.4348    2.8614    0.0347 C   0  0  0  0  0  0  0  0  0  0  0  0
    1.6638   -1.8449   -0.0237 C   0  0  0  0  0  0  0  0  0  0  0  0
    0.7017   -2.8619   -0.0200 C   0  0  0  0  0  0  0  0  0  0  0  0
    1.1139   -4.2033   -0.0311 C   0  0  0  0  0  0  0  0  0  0  0  0
    2.4802   -4.5088   -0.0457 C   0  0  0  0  0  0  0  0  0  0  0  0
    3.4168   -3.4969   -0.0493 C   0  0  0  0  0  0  0  0  0  0  0  0
    3.0194   -2.1729   -0.0442 C   0  0  0  0  0  0  0  0  0  0  0  0
    3.0583    0.6176   -0.0241 H   0  0  0  0  0  0  0  0  0  0  0  0
    0.1173   -5.2810   -0.0269 C   0  0  0  0  0  0  0  0  0  0  0  0
    4.8849   -3.8369   -0.0651 C   0  0  0  0  0  0  0  0  0  0  0  0
   -0.6173   -2.5534   -0.0054 O   0  0  0  0  0  0  0  0  0  0  0  0
   -1.0089   -2.4589   -0.8844 H   0  0  0  0  0  0  0  0  0  0  0  0
    0.4767   -6.4395   -0.0365 O   0  0  0  0  0  0  0  0  0  0  0  0
   -0.9360   -5.0425   -0.0152 H   0  0  0  0  0  0  0  0  0  0  0  0
  2  3  1  0  0  0  0
 14 15  1  0  0  0  0
 15 13  2  0  0  0  0
  7  8  2  0  0  0  0
 12 16  2  0  0  0  0
  3  4  1  0  0  0  0
 16 17  1  0  0  0  0
 17 14  2  0  0  0  0
  8  9  1  0  0  0  0
  4 18  1  0  0  0  0
  4  5  2  0  0  0  0
 18 19  2  0  0  0  0
  9 10  2  0  0  0  0
 19 20  1  0  0  0  0
  5  1  1  0  0  0  0
 20 21  2  0  0  0  0
 10 11  1  0  0  0  0
 21 22  1  0  0  0  0
 11  6  2  0  0  0  0
 22 23  2  0  0  0  0
 23 18  1  0  0  0  0
  1  2  2  0  0  0  0
  3 24  1  0  0  0  0
 20 25  1  0  0  0  0
 12 13  1  0  0  0  0
 22 26  1  0  0  0  0
 13  6  1  0  0  0  0
 19 27  1  0  0  0  0
 11  2  1  0  0  0  0
 27 28  1  0  0  0  0
  1 12  1  0  0  0  0
 25 29  2  0  0  0  0
  6  7  1  0  0  0  0
 25 30  1  0  0  0  0
M  END
$$$$
