Untitled angew-3
  corina  04171507513D 1   1.00000     0.00000 
CORINA 3.49 0023  12.04.2013
 39 42  0  0  0  0  0  0  0  0999 V2000
    1.2867    0.5736    2.8322 C   0  0  0  0  0  0  0  0  0  0  0  0
    1.1107   -0.6540    2.2304 C   0  0  0  0  0  0  0  0  0  0  0  0
    2.1947   -1.2988    1.6294 C   0  0  0  0  0  0  0  0  0  0  0  0
    3.4647   -0.6835    1.6449 C   0  0  0  0  0  0  0  0  0  0  0  0
    3.6187    0.5599    2.2603 C   0  0  0  0  0  0  0  0  0  0  0  0
    2.5347    1.1776    2.8471 C   0  0  0  0  0  0  0  0  0  0  0  0
    2.0186   -2.5744    1.0030 C   0  0  0  0  0  0  0  0  0  0  0  0
    1.8742   -3.6202    0.4894 C   0  0  0  0  0  0  0  0  0  0  0  0
    1.6980   -4.8958   -0.1370 C   0  0  0  0  0  0  0  0  0  0  0  0
    2.7882   -5.5430   -0.7408 C   0  0  0  0  0  0  0  0  0  0  0  0
    2.6049   -6.7784   -1.3445 C   0  0  0  0  0  0  0  0  0  0  0  0
    1.3554   -7.3676   -1.3507 C   0  0  0  0  0  0  0  0  0  0  0  0
    0.2773   -6.7323   -0.7567 C   0  0  0  0  0  0  0  0  0  0  0  0
    0.4411   -5.5071   -0.1464 C   0  0  0  0  0  0  0  0  0  0  0  0
    4.0488   -4.9465   -0.7339 N   0  0  0  0  0  0  0  0  0  0  0  0
    5.1415   -5.6836   -0.4528 C   0  0  0  0  0  0  0  0  0  0  0  0
    6.4619   -5.0356   -0.3525 C   0  0  0  0  0  0  0  0  0  0  0  0
    5.0383   -6.8832   -0.2819 O   0  0  0  0  0  0  0  0  0  0  0  0
    6.8962   -4.1670   -1.3540 C   0  0  0  0  0  0  0  0  0  0  0  0
    8.1328   -3.5638   -1.2554 C   0  0  0  0  0  0  0  0  0  0  0  0
    8.9525   -3.8131   -0.1659 C   0  0  0  0  0  0  0  0  0  0  0  0
    8.5439   -4.6676    0.8362 C   0  0  0  0  0  0  0  0  0  0  0  0
    7.2933   -5.2849    0.7602 C   0  0  0  0  0  0  0  0  0  0  0  0
    6.8629   -6.1730    1.7978 C   0  0  0  0  0  0  0  0  0  0  0  0
    6.5100   -6.9011    2.6485 C   0  0  0  0  0  0  0  0  0  0  0  0
    6.0795   -7.7892    3.6861 C   0  0  0  0  0  0  0  0  0  0  0  0
    4.8223   -8.4093    3.6087 C   0  0  0  0  0  0  0  0  0  0  0  0
    4.4165   -9.2674    4.6198 C   0  0  0  0  0  0  0  0  0  0  0  0
    5.2466   -9.5098    5.6973 C   0  0  0  0  0  0  0  0  0  0  0  0
    6.4877   -8.9001    5.7776 C   0  0  0  0  0  0  0  0  0  0  0  0
    6.9108   -8.0486    4.7794 C   0  0  0  0  0  0  0  0  0  0  0  0
    3.9848   -8.1630    2.5197 N   0  0  0  0  0  0  0  0  0  0  0  0
    4.6192   -1.3487    1.0167 C   0  0  0  0  0  0  0  0  0  0  0  0
    4.5058   -2.4759    0.5769 O   0  0  0  0  0  0  0  0  0  0  0  0
    5.8013   -0.7071    0.9296 O   0  0  0  0  0  0  0  0  0  0  0  0
    6.8632   -1.3776    0.2007 C   0  0  0  0  0  0  0  0  0  0  0  0
    2.9974  -10.1369    2.7454 O   0  0  0  0  0  0  0  0  0  0  0  0
    3.0967   -9.0979    2.1276 C   0  0  0  0  0  0  0  0  0  0  0  0
    2.2270   -8.8522    0.9216 C   0  0  0  0  0  0  0  0  0  0  0  0
  4 33  1  0      
 33 34  2  0      
 33 35  1  0      
 35 36  1  0      
 32 38  1  0      
 37 38  2  0      
 38 39  1  0      
  1  2  2  0      
  2  3  1  0      
  3  4  2  0      
  4  5  1  0      
  5  6  2  0      
  6  1  1  0      
  3  7  1  0      
  7  8  3  0      
  8  9  1  0      
  9 10  2  0      
 10 11  1  0      
 11 12  2  0      
 12 13  1  0      
 13 14  2  0      
 14  9  1  0      
 10 15  1  0      
 15 16  1  0      
 16 17  1  0      
 16 18  2  0      
 17 19  2  0      
 19 20  1  0      
 20 21  2  0      
 21 22  1  0      
 22 23  2  0      
 23 17  1  0      
 23 24  1  0      
 24 25  3  0      
 25 26  1  0      
 26 27  2  0      
 27 28  1  0      
 28 29  2  0      
 29 30  1  0      
 30 31  2  0      
 31 26  1  0      
 27 32  1  0      
M  STY  1   1 SUP
M  SLB  1   1   1
M  SAL   1  4  33  34  35  36
M  SBL   1  1   1
M  SMT   1 ^CO2Me
M  SBV   1   1    0.4111    0.7120
M  STY  1   2 SUP
M  SLB  1   2   2
M  SAL   2  3  37  38  39
M  SBL   2  1   5
M  SMT   2 ^Ac
M  SBV   2   5    0.4111   -0.7120
M  END
$$$$
