title.cdx
  corina  04171207583D 1   1.00000     0.00000 
CORINA 3.49 0024  01.06.2011
 25 27  0  0  0  0  0  0  0  0999 V2000
    0.1373    1.4292   -0.4970 N   0  0  0  0  0  0  0  0  0  0  0  0
    0.0955    0.0853   -0.5881 C   0  0  0  0  0  0  0  0  0  0  0  0
    1.0920   -0.6905   -0.1431 N   0  0  0  0  0  0  0  0  0  0  0  0
    2.2301   -0.2035    0.4370 C   0  0  0  0  0  0  0  0  0  0  0  0
    2.4169    1.1243    0.5975 C   0  0  0  0  0  0  0  0  0  0  0  0
    1.3228    2.0541    0.1134 C   0  0  0  0  0  0  0  0  0  0  0  0
    1.9257    2.9933   -0.8993 C   0  0  0  0  0  0  0  0  0  0  0  0
    3.5938    1.6299    1.1980 C   0  0  0  0  0  0  0  0  0  0  0  0
    4.4591    0.8645    1.5800 O   0  0  0  0  0  0  0  0  0  0  0  0
    3.2929   -1.1638    0.9052 C   0  0  0  0  0  0  0  0  0  0  0  0
    0.9608   -2.0785   -0.2791 C   0  0  0  0  0  0  0  0  0  0  0  0
   -0.8789   -0.4398   -1.0904 O   0  0  0  0  0  0  0  0  0  0  0  0
    2.2818    4.2759   -0.5263 C   0  0  0  0  0  0  0  0  0  0  0  0
    2.8348    5.1374   -1.4553 C   0  0  0  0  0  0  0  0  0  0  0  0
    3.0321    4.7162   -2.7570 C   0  0  0  0  0  0  0  0  0  0  0  0
    2.6769    3.4333   -3.1297 C   0  0  0  0  0  0  0  0  0  0  0  0
    2.1279    2.5704   -2.1997 C   0  0  0  0  0  0  0  0  0  0  0  0
    0.3518   -2.8213    0.7236 C   0  0  0  0  0  0  0  0  0  0  0  0
    0.2235   -4.1896    0.5864 C   0  0  0  0  0  0  0  0  0  0  0  0
    0.7009   -4.8199   -0.5481 C   0  0  0  0  0  0  0  0  0  0  0  0
    1.3083   -4.0830   -1.5482 C   0  0  0  0  0  0  0  0  0  0  0  0
    1.4344   -2.7137   -1.4194 C   0  0  0  0  0  0  0  0  0  0  0  0
    3.7569    2.9612    1.3470 O   0  0  0  0  0  0  0  0  0  0  0  0
    4.9695    3.4015    1.9615 C   0  0  0  0  0  0  0  0  0  0  0  0
    0.5593   -6.3131   -0.6946 C   0  0  0  0  0  0  0  0  0  0  0  0
  1  2  1  0      
  2  3  1  0      
  3  4  1  0      
  4  5  2  0      
  5  6  1  0      
  6  1  1  0      
  6  7  1  0      
  5  8  1  0      
  8  9  2  0      
  4 10  1  0      
  3 11  1  0      
  2 12  2  0      
  7 13  2  0      
 13 14  1  0      
 14 15  2  0      
 15 16  1  0      
 16 17  2  0      
 17  7  1  0      
 11 18  2  0      
 18 19  1  0      
 19 20  2  0      
 20 21  1  0      
 21 22  2  0      
 22 11  1  0      
  8 23  1  0      
 23 24  1  0      
 20 25  1  0      
M  STY  1   1 SUP
M  SLB  1   1   1
M  SAL   1  2  23  24
M  SBL   1  1  25
M  SMT   1 OMe
M  SBV   1 25   -2.9844    3.9118
M  STY  1   2 SUP
M  SLB  1   2   2
M  SAL   2  1  25
M  SBL   2  1  27
M  SMT   2 Me
M  SBV   2 27   -3.3423    3.2926
M  END
$$$$
