m552.cdx
  corina  12080917093D 1   1.00000     0.00000 
CORINA 3.46 0026  05.08.2008
 14 15  0  0  0  0  0  0  0  0999 V2000
   -0.0167    1.3794    0.0096 C   0  0  0  0  0  0  0  0  0  0  0  0
    0.0021   -0.0041    0.0020 C   0  0  0  0  0  0  0  0  0  0  0  0
    1.2041   -0.6851   -0.0132 C   0  0  0  0  0  0  0  0  0  0  0  0
    2.3975    0.0193   -0.0208 C   0  0  0  0  0  0  0  0  0  0  0  0
    2.3775    1.4141   -0.0131 C   0  0  0  0  0  0  0  0  0  0  0  0
    1.1681    2.0904    0.0021 C   0  0  0  0  0  0  0  0  0  0  0  0
    3.6975   -0.3645   -0.0353 O   0  0  0  0  0  0  0  0  0  0  0  0
    4.4794    0.7265   -0.0370 C   0  0  0  0  0  0  0  0  0  0  0  0
    3.7081    1.8317   -0.0237 N   0  0  0  0  0  0  0  0  0  0  0  0
    5.6953    0.7190   -0.0487 O   0  0  0  0  0  0  0  0  0  0  0  0
    4.1810    3.2183   -0.0203 C   0  0  0  0  0  0  0  0  0  0  0  0
    4.3306    3.7014   -1.4399 C   0  0  0  0  0  0  0  0  0  0  0  0
    4.0691    2.9637   -2.3595 O   0  0  0  0  0  0  0  0  0  0  0  0
    4.8065    5.1052   -1.7119 C   0  0  0  0  0  0  0  0  0  0  0  0
  1  2  2  0      
  2  3  1  0      
  3  4  2  0      
  4  5  1  0      
  5  6  2  0      
  6  1  1  0      
  4  7  1  0      
  7  8  1  0      
  8  9  1  0      
  9  5  1  0      
  8 10  2  0      
  9 11  1  0      
 11 12  1  0      
 12 13  2  0      
 12 14  1  0      
M  END
$$$$
