
  corina  04191010493D 1   1.00000     0.00000 
CORINA 3.46 0026  05.08.2008
 22 23  0  0  0  0  0  0  0  0999 V2000
    0.2764    1.2810    0.0593 C   0  0  2  0  0  0  0  0  0  0  0  0
    0.1310   -0.2552   -0.0777 C   0  0  2  0  0  0  0  0  0  0  0  0
    1.1835   -0.5672   -1.0218 O   0  0  0  0  0  0  0  0  0  0  0  0
    2.2525    0.3356   -0.6921 C   0  0  2  0  0  0  0  0  0  0  0  0
    1.7010    1.4834   -0.0335 O   0  0  0  0  0  0  0  0  0  0  0  0
    2.9695    0.7721   -1.9713 C   0  0  0  0  0  0  0  0  0  0  0  0
    3.2466   -0.3626    0.2380 C   0  0  0  0  0  0  0  0  0  0  0  0
   -0.2499    1.7550    1.4155 C   0  0  0  0  0  0  0  0  0  0  0  0
   -1.2201   -0.6217   -0.6355 C   0  0  0  0  0  0  0  0  0  0  0  0
   -2.0712   -1.2946    0.0986 C   0  0  0  0  0  0  0  0  0  0  0  0
   -1.5922   -0.2141   -2.0378 C   0  0  0  0  0  0  0  0  0  0  0  0
   -3.3561   -1.7975   -0.5074 C   0  0  0  0  0  0  0  0  0  0  0  0
   -3.5881   -3.1425   -0.0839 O   0  0  0  0  0  0  0  0  0  0  0  0
   -0.7810   -0.9284   -2.9726 O   0  0  0  0  0  0  0  0  0  0  0  0
   -0.2116    3.1825    1.4687 O   0  0  0  0  0  0  0  0  0  0  0  0
   -0.6847    3.7311    2.7005 C   0  0  0  0  0  0  0  0  0  0  0  0
   -0.5999    5.2347    2.6462 C   0  0  0  0  0  0  0  0  0  0  0  0
   -1.6707    5.9708    2.1744 C   0  0  0  0  0  0  0  0  0  0  0  0
   -1.5929    7.3500    2.1246 C   0  0  0  0  0  0  0  0  0  0  0  0
   -0.4445    7.9933    2.5469 C   0  0  0  0  0  0  0  0  0  0  0  0
    0.6260    7.2573    3.0195 C   0  0  0  0  0  0  0  0  0  0  0  0
    0.5465    5.8782    3.0734 C   0  0  0  0  0  0  0  0  0  0  0  0
  1  2  1  0  0  0  0
  2  3  1  0  0  0  0
  3  4  1  0  0  0  0
  4  5  1  0  0  0  0
  5  1  1  0  0  0  0
  4  6  1  0  0  0  0
  4  7  1  0  0  0  0
  1  8  1  0  0  0  0
  2  9  1  0  0  0  0
  9 10  2  0  0  0  0
  9 11  1  0  0  0  0
 10 12  1  0  0  0  0
 12 13  1  0  0  0  0
 11 14  1  0  0  0  0
  8 15  1  0  0  0  0
 15 16  1  0  0  0  0
 16 17  1  0  0  0  0
 17 18  2  0  0  0  0
 18 19  1  0  0  0  0
 19 20  2  0  0  0  0
 20 21  1  0  0  0  0
 21 22  2  0  0  0  0
 22 17  1  0  0  0  0
M  END

$$$$
