the title compound.mol
  corina  07281408433D 1   1.00000     0.00000 
CORINA 3.49 0023  12.04.2013
 28 30  0  0  0  0  0  0  0  0999 V2000
   -0.0175    1.3837    0.0004 C   0  0  0  0  0  0  0  0  0  0  0  0
    0.0010   -0.0024   -0.0060 C   0  0  0  0  0  0  0  0  0  0  0  0
    1.2003   -0.6909   -0.0185 C   0  0  0  0  0  0  0  0  0  0  0  0
    2.3948    0.0061   -0.0248 C   0  0  0  0  0  0  0  0  0  0  0  0
    2.3795    1.4121   -0.0186 C   0  0  0  0  0  0  0  0  0  0  0  0
    1.1652    2.0967   -0.0057 C   0  0  0  0  0  0  0  0  0  0  0  0
    3.5872   -0.6393   -0.0359 O   0  0  0  0  0  0  0  0  0  0  0  0
    4.6596   -0.0217   -0.7484 C   0  0  0  0  0  0  0  0  0  0  0  0
    4.7764    1.4317   -0.3694 C   0  0  0  0  0  0  0  0  0  0  0  0
    3.6647    2.1279   -0.0250 C   0  0  0  0  0  0  0  0  0  0  0  0
    6.0824    2.0885   -0.3722 C   0  0  0  0  0  0  0  0  0  0  0  0
    6.1721    3.4112   -0.1299 N   0  0  0  0  0  0  0  0  0  0  0  0
    7.4001    4.0563   -0.2363 C   0  0  0  0  0  0  0  0  0  0  0  0
    8.5300    3.5025   -0.5596 N   0  0  0  0  0  0  0  0  0  0  0  0
    9.5526    4.2388   -0.6096 N   0  0  0  0  0  0  0  0  0  0  0  0
    9.4033    5.5013   -0.3336 C   0  0  0  0  0  0  0  0  0  0  0  0
    7.6993    5.7740    0.0364 S   0  0  0  0  0  0  0  0  0  0  0  0
   -1.5347    2.2273    0.0091 Cl  0  0  0  0  0  0  0  0  0  0  0  0
    7.0891    1.4406   -0.5936 O   0  0  0  0  0  0  0  0  0  0  0  0
    5.8824   -0.6913   -0.4350 O   0  0  0  0  0  0  0  0  0  0  0  0
    4.3981   -0.1328   -2.2518 C   0  0  0  0  0  0  0  0  0  0  0  0
    3.1960    0.5106   -2.5648 F   0  0  0  0  0  0  0  0  0  0  0  0
    5.4469    0.4714   -2.9534 F   0  0  0  0  0  0  0  0  0  0  0  0
    4.3125   -1.4820   -2.6117 F   0  0  0  0  0  0  0  0  0  0  0  0
   10.6740    6.7219   -0.3348 S   0  0  0  0  0  0  0  0  0  0  0  0
   12.1493    5.7747   -0.8008 C   0  0  0  0  0  0  0  0  0  0  0  0
   13.3426    6.6939   -0.8465 C   0  0  0  0  0  0  0  0  0  0  0  0
   14.3288    6.5295   -0.0001 C   0  0  0  0  0  0  0  0  0  0  0  0
  1  2  2  0      
  2  3  1  0      
  3  4  2  0      
  4  5  1  0      
  5  6  2  0      
  6  1  1  0      
  4  7  1  0      
  7  8  1  0      
  8  9  1  0      
  9 10  2  0      
 10  5  1  0      
  9 11  1  0      
 11 12  1  0      
 12 13  1  0      
 13 14  2  0      
 14 15  1  0      
 15 16  2  0      
 16 17  1  0      
 17 13  1  0      
  1 18  1  0      
 11 19  2  0      
  8 20  1  0      
  8 21  1  0      
 21 22  1  0      
 21 23  1  0      
 21 24  1  0      
 16 25  1  0      
 25 26  1  0      
 26 27  1  0      
 27 28  2  0      
M  STY  1   1 SUP
M  SLB  1   1   1
M  SAL   1  4  21  22  23  24
M  SBL   1  1  23
M  SMT   1 CF3
M  SBV   1 23   -8.1525    4.3588
M  STY  1   2 SUP
M  SLB  1   2   2
M  SAL   2  4  25  26  27  28
M  SBL   2  1  27
M  SMT   2 SCH2CH=CH2
M  SBV   2 27   -8.5508    4.8273
M  END
$$$$
