m392.cdx
  corina  12080917083D 1   1.00000     0.00000 
CORINA 3.46 0026  05.08.2008
 20 21  0  0  0  0  0  0  0  0999 V2000
    0.0427    1.1728   -0.6829 C   0  0  0  0  0  0  0  0  0  0  0  0
    0.0429   -0.0381   -0.0127 C   0  0  0  0  0  0  0  0  0  0  0  0
    1.1915   -0.4916    0.6131 C   0  0  0  0  0  0  0  0  0  0  0  0
    2.3456    0.2609    0.5732 C   0  0  0  0  0  0  0  0  0  0  0  0
    2.3541    1.4868   -0.1025 C   0  0  0  0  0  0  0  0  0  0  0  0
    1.1887    1.9379   -0.7323 C   0  0  0  0  0  0  0  0  0  0  0  0
    3.5725   -0.2257    1.2434 N   0  3  0  0  0  0  0  0  0  0  0  0
    3.5439   -1.2554    1.8934 O   0  5  0  0  0  0  0  0  0  0  0  0
    4.6107    0.4036    1.1449 O   0  0  0  0  0  0  0  0  0  0  0  0
    3.5797    2.2957   -0.1497 C   0  0  0  0  0  0  0  0  0  0  0  0
    3.5027    3.6517   -0.0784 C   0  0  0  0  0  0  0  0  0  0  0  0
    4.7207    4.4735   -0.2650 C   0  0  0  0  0  0  0  0  0  0  0  0
    2.2440    4.2849    0.1771 C   0  0  0  0  0  0  0  0  0  0  0  0
    1.2454    4.7872    0.3797 N   0  0  0  0  0  0  0  0  0  0  0  0
    4.8259    5.3311   -1.3601 C   0  0  0  0  0  0  0  0  0  0  0  0
    5.9629    6.0944   -1.5281 C   0  0  0  0  0  0  0  0  0  0  0  0
    6.9974    6.0105   -0.6132 C   0  0  0  0  0  0  0  0  0  0  0  0
    6.8992    5.1614    0.4747 C   0  0  0  0  0  0  0  0  0  0  0  0
    5.7649    4.3972    0.6568 C   0  0  0  0  0  0  0  0  0  0  0  0
    8.2365    6.8470   -0.8028 C   0  0  0  0  0  0  0  0  0  0  0  0
  1  2  2  0  0  0
  2  3  1  0  0  0
  3  4  2  0  0  0
  4  5  1  0  0  0
  5  6  2  0  0  0
  6  1  1  0  0  0
  4  7  1  0  0  0
  7  8  1  0  0  0
  7  9  2  0  0  0
  5 10  1  0  0  0
 10 11  2  0  0  0
 11 12  1  0  0  0
 11 13  1  0  0  0
 13 14  3  0  0  0
 12 15  2  0  0  0
 15 16  1  0  0  0
 16 17  2  0  0  0
 17 18  1  0  0  0
 18 19  2  0  0  0
 19 12  1  0  0  0
 17 20  1  0  0  0
M  END
$$$$
