molbank-22083.mol
  corina  09211202383D 1   1.00000     0.00000 
CORINA 3.49 0024  01.06.2011
 25 27  0  0  0  0  0  0  0  0999 V2000
   -0.0167    1.3794    0.0096 C   0  0  0  0  0  0  0  0  0  0  0  0
    0.0021   -0.0041    0.0020 C   0  0  0  0  0  0  0  0  0  0  0  0
    1.2043   -0.6806   -0.0127 C   0  0  0  0  0  0  0  0  0  0  0  0
    2.4034    0.0337   -0.0203 C   0  0  0  0  0  0  0  0  0  0  0  0
    2.3774    1.4292   -0.0131 C   0  0  0  0  0  0  0  0  0  0  0  0
    1.1684    2.0935    0.0021 C   0  0  0  0  0  0  0  0  0  0  0  0
    3.6955   -0.6847   -0.0356 C   0  0  0  0  0  0  0  0  0  0  0  0
    4.8516    0.0080   -0.0430 N   0  0  0  0  0  0  0  0  0  0  0  0
    6.1319   -0.7039   -0.0581 C   0  0  0  0  0  0  0  0  0  0  0  0
    7.1290    0.0730   -0.8786 C   0  0  0  0  0  0  0  0  0  0  0  0
    3.7151   -1.9000   -0.0415 O   0  0  0  0  0  0  0  0  0  0  0  0
    7.4953   -0.3543   -1.9478 O   0  0  0  0  0  0  0  0  0  0  0  0
    6.6176   -0.8391    1.2790 O   0  0  0  0  0  0  0  0  0  0  0  0
    5.9331   -1.8296    2.0487 C   0  0  0  0  0  0  0  0  0  0  0  0
    6.5077   -1.8849    3.3952 N   0  0  0  0  0  0  0  0  0  0  0  0
    7.5322   -1.1240    3.8665 C   0  0  0  0  0  0  0  0  0  0  0  0
    7.7868   -1.4339    5.1042 N   0  0  0  0  0  0  0  0  0  0  0  0
    6.9423   -2.4158    5.5121 C   0  0  0  0  0  0  0  0  0  0  0  0
    6.1058   -2.7146    4.4229 C   0  0  0  0  0  0  0  0  0  0  0  0
    6.7778   -3.1073    6.7148 C   0  0  0  0  0  0  0  0  0  0  0  0
    5.8129   -4.0689    6.8208 C   0  0  0  0  0  0  0  0  0  0  0  0
    4.9909   -4.3683    5.7441 C   0  0  0  0  0  0  0  0  0  0  0  0
    5.1305   -3.6938    4.5494 C   0  0  0  0  0  0  0  0  0  0  0  0
    7.6103    1.2398   -0.4217 O   0  0  0  0  0  0  0  0  0  0  0  0
    8.5672    1.9337   -1.2649 C   0  0  0  0  0  0  0  0  0  0  0  0
  1  2  2  0      
  2  3  1  0      
  3  4  2  0      
  4  5  1  0      
  5  6  2  0      
  6  1  1  0      
  7  4  1  0      
  8  7  1  0      
  9  8  1  0      
 10  9  1  0      
  7 11  2  0      
 10 12  2  0      
  9 13  1  0      
 14 13  1  0      
 15 14  1  0      
 16 15  1  0      
 16 17  2  0      
 17 18  1  0      
 18 19  1  0      
 19 15  1  0      
 18 20  2  0      
 20 21  1  0      
 21 22  2  0      
 22 23  1  0      
 23 19  2  0      
 10 24  1  0      
 24 25  1  0      
M  STY  1   1 SUP
M  SLB  1   1   1
M  SAL   1  2  24  25
M  SBL   1  1  26
M  SMT   1 OCH3
M  SBV   1 26   -6.9535    6.2422
M  END
$$$$
