
  corina  12080917093D 1   1.00000     0.00000 
CORINA 3.46 0026  05.08.2008
 31 32  0  0  0  0  0  0  0  0  1 V2000
    2.3801   -1.2569    1.4551 O   0  0  0  0  0  0  0  0  0  0  0  0
    1.1788    0.0868    3.1832 N   0  0  0  0  0  0  0  0  0  0  0  0
    0.0803    0.0227    2.4824 C   0  0  0  0  0  0  0  0  0  0  0  0
    0.0657   -0.7009    1.2044 C   0  0  0  0  0  0  0  0  0  0  0  0
    1.2328   -1.3252    0.7337 C   0  0  0  0  0  0  0  0  0  0  0  0
   -1.1123   -0.7767    0.4529 C   0  0  0  0  0  0  0  0  0  0  0  0
    1.2081   -2.0095   -0.4686 C   0  0  0  0  0  0  0  0  0  0  0  0
   -1.1225   -1.4607   -0.7413 C   0  0  0  0  0  0  0  0  0  0  0  0
    0.0343   -2.0779   -1.2053 C   0  0  0  0  0  0  0  0  0  0  0  0
    1.8163    0.8805    6.6908 C   0  0  0  0  0  0  0  0  0  0  0  0
    1.2207    2.1260    6.7837 C   0  0  0  0  0  0  0  0  0  0  0  0
    1.8059    0.1951    5.4939 C   0  0  0  0  0  0  0  0  0  0  0  0
    0.6110    2.6928    5.6784 C   0  0  0  0  0  0  0  0  0  0  0  0
    1.1924    0.7611    4.3741 C   0  0  0  0  0  0  0  0  0  0  0  0
    0.5931    2.0186    4.4752 C   0  0  0  0  0  0  0  0  0  0  0  0
    0.0150   -2.7503   -2.3850 O   0  0  0  0  0  0  0  0  0  0  0  0
    0.2559   -4.8878   -3.5981 C   0  0  0  0  0  0  0  0  0  0  0  0
    0.1532   -4.6460   -1.2565 O   0  0  0  0  0  0  0  0  0  0  0  0
    0.1377   -4.0864   -2.3273 C   0  0  0  0  0  0  0  0  0  0  0  0
    0.3827   -6.3732   -3.2543 C   0  0  0  0  0  0  0  0  0  0  0  0
    0.5028   -7.1868   -4.5445 C   0  0  0  0  0  0  0  0  0  0  0  0
    0.6295   -8.6723   -4.2007 C   0  0  0  0  0  0  0  0  0  0  0  0
    0.7496   -9.4859   -5.4909 C   0  0  0  0  0  0  0  0  0  0  0  0
    0.8764  -10.9714   -5.1471 C   0  0  0  0  0  0  0  0  0  0  0  0
    0.9965  -11.7850   -6.4372 C   0  0  0  0  0  0  0  0  0  0  0  0
    1.1232  -13.2705   -6.0935 C   0  0  0  0  0  0  0  0  0  0  0  0
    1.2433  -14.0841   -7.3836 C   0  0  0  0  0  0  0  0  0  0  0  0
    1.3701  -15.5696   -7.0398 C   0  0  0  0  0  0  0  0  0  0  0  0
    1.4902  -16.3832   -8.3300 C   0  0  0  0  0  0  0  0  0  0  0  0
    1.6169  -17.8687   -7.9862 C   0  0  0  0  0  0  0  0  0  0  0  0
    1.7370  -18.6823   -9.2764 C   0  0  0  0  0  0  0  0  0  0  0  0
  5  4  1  0  0  0  0
  6  4  2  0  0  0  0
  7  5  2  0  0  0  0
  8  6  1  0  0  0  0
  9  7  1  0  0  0  0
  9  8  2  0  0  0  0
  3  4  1  0  0  0  0
  2  3  2  0  0  0  0
  1  5  1  0  0  0  0
 11 10  1  0  0  0  0
 12 10  2  0  0  0  0
 13 11  2  0  0  0  0
 14 12  1  0  0  0  0
 15 13  1  0  0  0  0
 15 14  2  0  0  0  0
  2 14  1  0  0  0  0
 18 19  2  0  0  0  0
 17 19  1  0  0  0  0
 16 19  1  0  0  0  0
 20 17  1  0  0  0  0
 21 20  1  0  0  0  0
 22 21  1  0  0  0  0
 23 22  1  0  0  0  0
 24 23  1  0  0  0  0
 25 24  1  0  0  0  0
 26 25  1  0  0  0  0
 27 26  1  0  0  0  0
 28 27  1  0  0  0  0
 29 28  1  0  0  0  0
 30 29  1  0  0  0  0
 31 30  1  0  0  0  0
  9 16  1  0  0  0  0
M  END
$$$$
