
  corina  12080917083D 1   1.00000     0.00000 
CORINA 3.46 0026  05.08.2008
 26 27  0  0  0  0  0  0  0  0999 V2000
   -0.0167    1.3782    0.0096 C   0  0  0  0  0  0  0  0  0  0  0  0
    0.0021   -0.0041    0.0020 C   0  0  0  0  0  0  0  0  0  0  0  0
    1.2072   -0.6797   -0.0132 C   0  0  0  0  0  0  0  0  0  0  0  0
    2.3989    0.0301   -0.0208 C   0  0  0  0  0  0  0  0  0  0  0  0
    2.3774    1.4175   -0.0131 C   0  0  0  0  0  0  0  0  0  0  0  0
    1.1700    2.0882    0.0021 C   0  0  0  0  0  0  0  0  0  0  0  0
    1.1459    3.5950    0.0104 C   0  0  0  0  0  0  0  0  0  0  0  0
    1.2269   -2.1866   -0.0209 C   0  0  3  0  0  0  0  0  0  0  0  0
    0.5242   -2.7123    1.2323 C   0  0  0  0  0  0  0  0  0  0  0  0
    0.5007   -2.6997   -1.2660 C   0  0  0  0  0  0  0  0  0  0  0  0
    3.5855   -0.6321   -0.0353 O   0  0  0  0  0  0  0  0  0  0  0  0
    4.7725    0.1636   -0.0424 C   0  0  0  0  0  0  0  0  0  0  0  0
    5.9808   -0.7369   -0.0583 C   0  0  0  0  0  0  0  0  0  0  0  0
    7.2185   -0.2036   -0.0672 N   0  0  3  0  0  0  0  0  0  0  0  0
    5.8394   -1.9414   -0.0630 O   0  0  0  0  0  0  0  0  0  0  0  0
    8.3418   -1.0407   -0.0820 N   0  0  3  0  0  0  0  0  0  0  0  0
    9.5796   -0.5075   -0.0909 C   0  0  0  0  0  0  0  0  0  0  0  0
    7.3316    0.7598   -0.0634 H   0  0  0  0  0  0  0  0  0  0  0  0
    8.2287   -2.0041   -0.0858 H   0  0  0  0  0  0  0  0  0  0  0  0
   10.7632   -1.3896   -0.1065 C   0  0  0  0  0  0  0  0  0  0  0  0
    9.7792    1.1928   -0.0842 S   0  0  0  0  0  0  0  0  0  0  0  0
   11.9232   -1.0190    0.5771 C   0  0  0  0  0  0  0  0  0  0  0  0
   13.0255   -1.8480    0.5583 C   0  0  0  0  0  0  0  0  0  0  0  0
   12.9838   -3.0443   -0.1358 C   0  0  0  0  0  0  0  0  0  0  0  0
   11.8379   -3.4175   -0.8157 C   0  0  0  0  0  0  0  0  0  0  0  0
   10.7261   -2.6010   -0.8002 C   0  0  0  0  0  0  0  0  0  0  0  0
 12 13  1  0  0  0  0
  1  2  2  0  0  0  0
 13 14  1  0  0  0  0
  6  7  1  0  0  0  0
 13 15  2  0  0  0  0
  3  4  2  0  0  0  0
 14 16  1  0  0  0  0
  3  8  1  0  0  0  0
 16 17  1  0  0  0  0
 14 18  1  0  0  0  0
  8  9  1  0  0  0  0
 16 19  1  0  0  0  0
  4  5  1  0  0  0  0
 17 20  1  0  0  0  0
  8 10  1  0  0  0  0
 17 21  2  0  0  0  0
  2  3  1  0  0  0  0
 20 22  2  0  0  0  0
  4 11  1  0  0  0  0
 22 23  1  0  0  0  0
  5  6  2  0  0  0  0
 23 24  2  0  0  0  0
 11 12  1  0  0  0  0
 24 25  1  0  0  0  0
  6  1  1  0  0  0  0
 25 26  2  0  0  0  0
 26 20  1  0  0  0  0
M  END
$$$$
