Untitled ACS Document 1996-1
  corina  12281513353D 1   1.00000     0.00000 
CORINA 3.60 0026  08.12.2014
 23 26  0  0  0  0  0  0  0  0999 V2000
   -0.0179    1.4694    0.0101 C   0  0  0  0  0  0  0  0  0  0  0  0
    0.0021   -0.0041    0.0020 C   0  0  0  0  0  0  0  0  0  0  0  0
    1.1315   -0.7874   -0.1109 N   0  0  0  0  0  0  0  0  0  0  0  0
    0.7567   -2.1019   -0.0800 C   0  0  0  0  0  0  0  0  0  0  0  0
   -0.6470   -2.1455    0.0561 C   0  0  0  0  0  0  0  0  0  0  0  0
   -1.0915   -0.8090    0.1108 C   0  0  0  0  0  0  0  0  0  0  0  0
    2.4489   -0.4556   -0.2379 C   0  0  0  0  0  0  0  0  0  0  0  0
    3.3969   -1.4141   -0.3348 C   0  0  0  0  0  0  0  0  0  0  0  0
    3.0382   -2.7688   -0.3061 C   0  0  0  0  0  0  0  0  0  0  0  0
    1.7234   -3.1117   -0.1781 C   0  0  0  0  0  0  0  0  0  0  0  0
   -1.2543    2.1413    0.0055 C   0  0  0  0  0  0  0  0  0  0  0  0
   -1.2854    3.5023    0.0129 C   0  0  0  0  0  0  0  0  0  0  0  0
   -0.0598    4.2004    0.0251 C   0  0  0  0  0  0  0  0  0  0  0  0
    1.1535    3.4680    0.0292 C   0  0  0  0  0  0  0  0  0  0  0  0
    1.1269    2.1323    0.0271 N   0  0  0  0  0  0  0  0  0  0  0  0
   -0.0223    5.6029    0.0327 C   0  0  0  0  0  0  0  0  0  0  0  0
    1.1791    6.2453    0.0440 C   0  0  0  0  0  0  0  0  0  0  0  0
    2.3731    5.5279    0.0477 C   0  0  0  0  0  0  0  0  0  0  0  0
    2.3739    4.1666    0.0414 C   0  0  0  0  0  0  0  0  0  0  0  0
   -1.4791   -3.3454    0.1318 C   0  0  0  0  0  0  0  0  0  0  0  0
   -0.9649   -4.4469    0.0773 O   0  0  0  0  0  0  0  0  0  0  0  0
   -2.8173   -3.2312    0.2622 O   0  0  0  0  0  0  0  0  0  0  0  0
   -3.5684   -4.4450    0.3301 C   0  0  0  0  0  0  0  0  0  0  0  0
  1  2  1  0      
  2  3  1  0      
  3  4  1  0      
  4  5  2  0      
  5  6  1  0      
  6  2  2  0      
  3  7  1  0      
  7  8  2  0      
  8  9  1  0      
  9 10  2  0      
 10  4  1  0      
  1 11  2  0      
 11 12  1  0      
 12 13  2  0      
 13 14  1  0      
 14 15  2  0      
 15  1  1  0      
 13 16  1  0      
 16 17  2  0      
 17 18  1  0      
 18 19  2  0      
 19 14  1  0      
  5 20  1  0      
 20 21  2  0      
 20 22  1  0      
 22 23  1  0      
M  STY  1   1 SUP
M  SLB  1   1   1
M  SAL   1  4  20  21  22  23
M  SBL   1  1  23
M  SMT   1 CO2Me
M  SBV   1 23  -17.8509   22.0048
M  END
$$$$
