untitled.mol
  corina  11281311103D 1   1.00000     0.00000 
CORINA 3.49 0023  12.04.2013
 34 35  0  0  0  0  0  0  0  0999 V2000
   -0.0187    1.5258    0.0104 C   0  0  0  0  0  0  0  0  0  0  0  0
    0.0021   -0.0041    0.0020 C   0  0  0  0  0  0  0  0  0  0  0  0
   -1.4333   -0.5336    0.0129 C   0  0  0  0  0  0  0  0  0  0  0  0
   -1.4126   -2.0635    0.0045 C   0  0  0  0  0  0  0  0  0  0  0  0
   -2.8479   -2.5931    0.0153 C   0  0  0  0  0  0  0  0  0  0  0  0
   -2.8272   -4.1229    0.0069 C   0  0  0  0  0  0  0  0  0  0  0  0
   -4.2626   -4.6525    0.0178 C   0  0  0  0  0  0  0  0  0  0  0  0
   -4.2418   -6.1823    0.0094 C   0  0  0  0  0  0  0  0  0  0  0  0
   -5.6772   -6.7119    0.0202 C   0  0  0  0  0  0  0  0  0  0  0  0
   -5.6565   -8.2417    0.0118 C   0  0  0  0  0  0  0  0  0  0  0  0
   -7.0918   -8.7713    0.0227 C   0  0  0  0  0  0  0  0  0  0  0  0
   -7.0711  -10.3012    0.0143 C   0  0  0  0  0  0  0  0  0  0  0  0
   -8.5065  -10.8307    0.0251 C   0  0  0  0  0  0  0  0  0  0  0  0
   -8.4857  -12.3606    0.0167 C   0  0  0  0  0  0  0  0  0  0  0  0
   -9.9211  -12.8902    0.0276 C   0  0  0  0  0  0  0  0  0  0  0  0
   -9.9007  -14.3970    0.0193 C   0  0  0  0  0  0  0  0  0  0  0  0
   -9.8799  -15.0894    1.2142 C   0  0  0  0  0  0  0  0  0  0  0  0
   -9.8611  -16.4754    1.2146 C   0  0  0  0  0  0  0  0  0  0  0  0
   -9.8631  -17.1709   -0.0049 C   0  0  0  0  0  0  0  0  0  0  0  0
   -9.8843  -16.4560   -1.2076 C   0  0  0  0  0  0  0  0  0  0  0  0
   -9.9085  -15.0788   -1.1871 C   0  0  0  0  0  0  0  0  0  0  0  0
   -9.8402  -17.1566    2.3878 O   0  0  0  0  0  0  0  0  0  0  0  0
   -9.8428  -18.6399   -0.0183 C   0  0  0  0  0  0  0  0  0  0  0  0
   -9.8227  -19.3027    1.1061 N   0  0  0  0  0  0  0  0  0  0  0  0
   -9.8038  -20.6678    1.0937 C   0  0  0  0  0  0  0  0  0  0  0  0
   -8.9291  -21.3631    1.9357 C   0  0  0  0  0  0  0  0  0  0  0  0
   -8.9142  -22.7283    1.9273 C   0  0  0  0  0  0  0  0  0  0  0  0
   -9.7732  -23.4319    1.0765 C   0  0  0  0  0  0  0  0  0  0  0  0
  -10.6478  -22.7369    0.2345 C   0  0  0  0  0  0  0  0  0  0  0  0
  -10.6632  -21.3717    0.2431 C   0  0  0  0  0  0  0  0  0  0  0  0
   -9.7564  -24.9062    1.0667 C   0  0  0  0  0  0  0  0  0  0  0  0
  -10.5839  -25.5841    0.2471 O   0  0  0  0  0  0  0  0  0  0  0  0
   -8.9964  -25.5099    1.7978 O   0  0  0  0  0  0  0  0  0  0  0  0
  -10.5130  -27.0337    0.2906 C   0  0  0  0  0  0  0  0  0  0  0  0
  1  2  1  0      
  2  3  1  0      
  3  4  1  0      
  4  5  1  0      
  5  6  1  0      
  6  7  1  0      
  7  8  1  0      
  8  9  1  0      
  9 10  1  0      
 10 11  1  0      
 11 12  1  0      
 12 13  1  0      
 13 14  1  0      
 14 15  1  0      
 15 16  1  0      
 16 17  2  0      
 17 18  1  0      
 18 19  2  0      
 19 20  1  0      
 20 21  2  0      
 21 16  1  0      
 18 22  1  0      
 19 23  1  0      
 23 24  2  0      
 25 26  2  0      
 26 27  1  0      
 27 28  2  0      
 28 29  1  0      
 29 30  2  0      
 30 25  1  0      
 28 31  1  0      
 31 32  1  0      
 31 33  2  0      
 32 34  1  0      
 24 25  1  0      
M  END
$$$$
