m548.cdx
  corina  12080917093D 1   1.00000     0.00000 
CORINA 3.46 0026  05.08.2008
 15 16  0  0  0  0  0  0  0  0999 V2000
   -0.0167    1.3770    0.0096 C   0  0  0  0  0  0  0  0  0  0  0  0
    0.0021   -0.0041    0.0020 C   0  0  0  0  0  0  0  0  0  0  0  0
    1.2090   -0.6805   -0.0131 C   0  0  0  0  0  0  0  0  0  0  0  0
    2.3991    0.0245   -0.0203 C   0  0  0  0  0  0  0  0  0  0  0  0
    2.3848    1.4061   -0.0122 C   0  0  0  0  0  0  0  0  0  0  0  0
    1.1759    2.0860    0.0020 C   0  0  0  0  0  0  0  0  0  0  0  0
    1.1597    3.4451    0.0095 O   0  0  0  0  0  0  0  0  0  0  0  0
    1.2317   -2.5713   -0.0235 Br  0  0  0  0  0  0  0  0  0  0  0  0
    3.6816    2.1736   -0.0190 C   0  0  0  0  0  0  0  0  0  0  0  0
    3.9923    2.6222    1.3449 N   0  0  0  0  0  0  0  0  0  0  0  0
    5.3512    3.1631    1.4229 C   0  0  0  0  0  0  0  0  0  0  0  0
    5.5024    4.0102    2.6909 C   0  0  0  0  0  0  0  0  0  0  0  0
    5.2367    2.9384    4.1364 S   0  0  0  0  0  0  0  0  0  0  0  0
    3.6539    2.1410    3.7267 C   0  0  0  0  0  0  0  0  0  0  0  0
    3.7572    1.5512    2.3160 C   0  0  0  0  0  0  0  0  0  0  0  0
  1  2  2  0      
  2  3  1  0      
  3  4  2  0      
  4  5  1  0      
  5  6  2  0      
  6  1  1  0      
  6  7  1  0      
  3  8  1  0      
  5  9  1  0      
  9 10  1  0      
 10 11  1  0      
 11 12  1  0      
 12 13  1  0      
 13 14  1  0      
 14 15  1  0      
 15 10  1  0      
M  END
$$$$
