
  corina  12080917083D 1   1.00000     0.00000 
CORINA 3.46 0026  05.08.2008
 38 39  0  0  0  0  0  0  0  0999 V2000
    1.3216    0.6907   -0.1506 C   0  0  0  0  0  0  0  0  0  0  0  0
    2.0840    1.9932   -0.0476 C   0  0  1  0  0  0  0  0  0  0  0  0
    2.6227    2.1307    1.3803 C   0  0  1  0  0  0  0  0  0  0  0  0
    3.4439    0.8900    1.7352 C   0  0  2  0  0  0  0  0  0  0  0  0
    2.5434   -0.3465    1.7313 C   0  0  3  0  0  0  0  0  0  0  0  0
    2.0016   -0.5772    0.3166 C   0  0  3  0  0  0  0  0  0  0  0  0
    3.3517   -1.5679    2.1736 C   0  0  0  0  0  0  0  0  0  0  0  0
    1.4527   -0.1446    2.6322 O   0  0  0  0  0  0  0  0  0  0  0  0
    4.2394    0.7599    1.0015 H   0  0  0  0  0  0  0  0  0  0  0  0
    4.0489    1.0646    3.1044 C   0  0  0  0  0  0  0  0  0  0  0  0
    1.2817   -1.3955    0.3292 H   0  0  0  0  0  0  0  0  0  0  0  0
    3.1389   -0.9178   -0.6116 C   0  0  0  0  0  0  0  0  0  0  0  0
    2.8827   -1.3799   -1.8455 O   0  0  0  0  0  0  0  0  0  0  0  0
    4.2814   -0.7751   -0.2451 O   0  0  0  0  0  0  0  0  0  0  0  0
    4.0268   -1.6874   -2.6850 C   0  0  0  0  0  0  0  0  0  0  0  0
    0.2007    0.6631   -0.5991 O   0  0  0  0  0  0  0  0  0  0  0  0
    3.2324    1.9861   -1.0234 C   0  0  0  0  0  0  0  0  0  0  0  0
    4.3022    1.5312   -0.6941 O   0  0  0  0  0  0  0  0  0  0  0  0
    3.0668    2.4852   -2.2584 O   0  0  0  0  0  0  0  0  0  0  0  0
    4.2160    2.4455   -3.1450 C   0  0  0  0  0  0  0  0  0  0  0  0
    3.4966    3.3549    1.4720 C   0  0  0  0  0  0  0  0  0  0  0  0
    1.7889    2.2260    2.0758 H   0  0  0  0  0  0  0  0  0  0  0  0
    3.7813    0.2842    3.9871 O   0  0  0  0  0  0  0  0  0  0  0  0
    4.8850    2.0871    3.3432 O   0  0  0  0  0  0  0  0  0  0  0  0
    5.4301    2.1934    4.6848 C   0  0  0  0  0  0  0  0  0  0  0  0
    2.4501   -2.7742    2.2278 C   0  0  0  0  0  0  0  0  0  0  0  0
    1.2609   -2.6479    2.0549 O   0  0  0  0  0  0  0  0  0  0  0  0
    2.9681   -3.9890    2.4680 O   0  0  0  0  0  0  0  0  0  0  0  0
    2.0404   -5.1054    2.5060 C   0  0  0  0  0  0  0  0  0  0  0  0
    4.8507    3.2587    1.2111 C   0  0  0  0  0  0  0  0  0  0  0  0
    5.6524    4.3817    1.2953 C   0  0  0  0  0  0  0  0  0  0  0  0
    5.0999    5.6011    1.6400 C   0  0  0  0  0  0  0  0  0  0  0  0
    3.7456    5.6975    1.9001 C   0  0  0  0  0  0  0  0  0  0  0  0
    2.9432    4.5753    1.8116 C   0  0  0  0  0  0  0  0  0  0  0  0
    1.4178    2.8261   -0.2723 H   0  0  0  0  0  0  0  0  0  0  0  0
    5.9740    6.8251    1.7328 C   0  0  0  0  0  0  0  0  0  0  0  0
    4.1571   -1.7479    1.4616 H   0  0  0  0  0  0  0  0  0  0  0  0
    3.7743   -1.3855    3.1617 H   0  0  0  0  0  0  0  0  0  0  0  0
 17 19  1  0  0  0  0
  4  3  1  0  0  0  0
 19 20  1  0  0  0  0
  4 10  1  0  0  0  0
  3 21  1  0  0  0  0
  4  5  1  0  0  0  0
  3 22  1  0  0  0  0
  6 11  1  0  0  0  0
 10 23  2  0  0  0  0
  5  6  1  0  0  0  0
 10 24  1  0  0  0  0
  6 12  1  0  0  0  0
 24 25  1  0  0  0  0
  1  6  1  0  0  0  0
  7 26  1  0  0  0  0
 12 13  1  0  0  0  0
 26 27  2  0  0  0  0
 26 28  1  0  0  0  0
 12 14  2  0  0  0  0
 28 29  1  0  0  0  0
  5  7  1  0  0  0  0
 21 30  2  0  0  0  0
 13 15  1  0  0  0  0
 30 31  1  0  0  0  0
  1  2  1  0  0  0  0
 31 32  2  0  0  0  0
  1 16  2  0  0  0  0
 32 33  1  0  0  0  0
  5  8  1  0  0  0  0
 33 34  2  0  0  0  0
 34 21  1  0  0  0  0
  2 17  1  0  0  0  0
  2 35  1  0  0  0  0
  2  3  1  0  0  0  0
 32 36  1  0  0  0  0
 17 18  2  0  0  0  0
  7 37  1  0  0  0  0
  4  9  1  0  0  0  0
  7 38  1  0  0  0  0
M  END
$$$$
