Microsoft Word - Document1
  corina  10161204013D 1   1.00000     0.00000 
CORINA 3.49 0024  01.06.2011
 25 26  0  0  0  0  0  0  0  0999 V2000
   -0.0179    1.4709    0.0101 C   0  0  0  0  0  0  0  0  0  0  0  0
   -1.0720   -2.2353    0.0002 S   0  0  0  0  0  0  0  0  0  0  0  0
    0.3529   -2.8881   -0.0168 N   0  0  0  0  0  0  0  0  0  0  0  0
    1.3989   -2.0989   -0.0225 C   0  0  0  0  0  0  0  0  0  0  0  0
    1.2809   -0.7021   -0.0134 C   0  0  0  0  0  0  0  0  0  0  0  0
    0.0021   -0.0041    0.0020 C   0  0  0  0  0  0  0  0  0  0  0  0
   -1.1402   -0.6686    0.0093 N   0  0  0  0  0  0  0  0  0  0  0  0
    2.3048   -0.0346   -0.0187 O   0  0  0  0  0  0  0  0  0  0  0  0
    2.9838   -2.8069   -0.0414 Cl  0  0  0  0  0  0  0  0  0  0  0  0
    1.4040    2.5062    0.0021 S   0  0  0  0  0  0  0  0  0  0  0  0
    0.3943    3.9459    0.0188 C   0  0  0  0  0  0  0  0  0  0  0  0
   -0.8955    3.5935    0.0290 C   0  0  0  0  0  0  0  0  0  0  0  0
   -1.1302    2.2354    0.0190 C   0  0  0  0  0  0  0  0  0  0  0  0
   -2.0107    4.6070    0.0451 C   0  0  0  0  0  0  0  0  0  0  0  0
   -2.4022    4.9573   -1.3919 C   0  0  0  0  0  0  0  0  0  0  0  0
   -3.5344    5.9862   -1.3756 C   0  0  0  0  0  0  0  0  0  0  0  0
   -3.9258    6.3366   -2.8126 C   0  0  0  0  0  0  0  0  0  0  0  0
   -5.0581    7.3655   -2.7964 C   0  0  0  0  0  0  0  0  0  0  0  0
   -5.4495    7.7159   -4.2333 C   0  0  0  0  0  0  0  0  0  0  0  0
   -6.5817    8.7448   -4.2171 C   0  0  0  0  0  0  0  0  0  0  0  0
   -6.9732    9.0952   -5.6541 C   0  0  0  0  0  0  0  0  0  0  0  0
   -8.1054   10.1241   -5.6378 C   0  0  0  0  0  0  0  0  0  0  0  0
   -8.4968   10.4744   -7.0748 C   0  0  0  0  0  0  0  0  0  0  0  0
   -9.6291   11.5033   -7.0585 C   0  0  0  0  0  0  0  0  0  0  0  0
  -10.0205   11.8537   -8.4955 C   0  0  0  0  0  0  0  0  0  0  0  0
  2  3  1  0      
  3  4  2  0      
  4  5  1  0      
  5  6  1  0      
  6  7  2  0      
  2  7  1  0      
  5  8  2  0      
  4  9  1  0      
  1  6  1  0      
  1 10  1  0      
 10 11  1  0      
 11 12  2  0      
 12 13  1  0      
 13  1  2  0      
 12 14  1  0      
 14 15  1  0      
 15 16  1  0      
 16 17  1  0      
 17 18  1  0      
 18 19  1  0      
 19 20  1  0      
 20 21  1  0      
 21 22  1  0      
 22 23  1  0      
 23 24  1  0      
 24 25  1  0      
M  END
$$$$
