molbank-2009-M600-s001.mol
  corina  04141400033D 1   1.00000     0.00000 
CORINA 3.49 0023  12.04.2013
 21 22  0  0  0  0  0  0  0  0999 V2000
    0.0343    1.3484   -0.5825 C   0  0  0  0  0  0  0  0  0  0  0  0
    0.1150    0.0097   -0.9232 C   0  0  0  0  0  0  0  0  0  0  0  0
    1.3409   -0.6319   -0.9422 C   0  0  0  0  0  0  0  0  0  0  0  0
    2.4900    0.0609   -0.6212 C   0  0  0  0  0  0  0  0  0  0  0  0
    2.4146    1.4096   -0.2778 C   0  0  0  0  0  0  0  0  0  0  0  0
    1.1772    2.0510   -0.2602 C   0  0  0  0  0  0  0  0  0  0  0  0
    3.9927    4.2595    1.6059 C   0  0  0  0  0  0  0  0  0  0  0  0
    3.6480    3.7489    0.3556 C   0  0  0  0  0  0  0  0  0  0  0  0
    3.7186    2.2033    0.0890 B   0  0  0  0  0  0  0  0  0  0  0  0
    3.9284    5.6186    1.8348 C   0  0  0  0  0  0  0  0  0  0  0  0
    3.5226    6.4743    0.8259 C   0  0  0  0  0  0  0  0  0  0  0  0
    3.1792    5.9728   -0.4172 C   0  0  0  0  0  0  0  0  0  0  0  0
    3.2399    4.6154   -0.6571 C   0  0  0  0  0  0  0  0  0  0  0  0
    8.4289    2.6544    0.7389 N   0  0  0  0  0  0  0  0  0  0  0  0
    7.4013    1.6214    0.5515 C   0  0  0  0  0  0  0  0  0  0  0  0
    6.0570    2.2775    0.3686 C   0  0  0  0  0  0  0  0  0  0  0  0
    4.9618    1.5233    0.1796 O   0  0  0  0  0  0  0  0  0  0  0  0
    5.9644    3.4819    0.3921 O   0  0  0  0  0  0  0  0  0  0  0  0
    7.6393    1.0283   -0.3315 H   0  0  0  0  0  0  0  0  0  0  0  0
    9.3401    2.2395    0.8638 H   0  0  0  0  0  0  0  0  0  0  0  0
    8.4309    3.3064   -0.0311 H   0  0  0  0  0  0  0  0  0  0  0  0
  1  2  2  0      
  2  3  1  0      
  3  4  2  0      
  4  5  1  0      
  5  6  2  0      
  6  1  1  0      
  7  8  2  0      
  8  9  1  0      
  9  5  1  0      
  7 10  1  0      
 10 11  2  0      
 11 12  1  0      
 12 13  2  0      
 13  8  1  0      
 14 15  1  0      
 15 16  1  0      
 16 17  1  0      
 17  9  1  0      
 16 18  2  0      
 15 19  1  0      
 14 20  1  0      
 14 21  1  0      
M  END
$$$$
