m486-1.mol
  corina  12080917093D 1   1.00000     0.00000 
CORINA 3.46 0026  05.08.2008
 18 19  0  0  0  0  0  0  0  0999 V2000
   -0.0162    1.3893    0.0513 C   0  0  0  0  0  0  0  0  0  0  0  0
    0.0027   -0.0043    0.0429 C   0  0  0  0  0  0  0  0  0  0  0  0
    1.1779   -0.6907    0.0144 C   0  0  0  0  0  0  0  0  0  0  0  0
    2.3958    0.0118   -0.0071 C   0  0  0  0  0  0  0  0  0  0  0  0
    2.3711    1.4284    0.0015 C   0  0  0  0  0  0  0  0  0  0  0  0
    1.1467    2.1035    0.0310 C   0  0  0  0  0  0  0  0  0  0  0  0
    3.5647   -0.6346   -0.0348 N   0  0  0  0  0  0  0  0  0  0  0  0
    4.7153   -0.0044   -0.0549 C   0  0  0  0  0  0  0  0  0  0  0  0
    4.8057    1.3926   -0.0484 C   0  0  0  0  0  0  0  0  0  0  0  0
    3.6435    2.1512   -0.0211 C   0  0  0  0  0  0  0  0  0  0  0  0
   -1.5367    2.2264    0.0807 Cl  0  0  0  0  0  0  0  0  0  0  0  0
    3.6892    3.6284   -0.0131 C   0  0  0  0  0  0  0  0  0  0  0  0
    5.8588   -0.7328   -0.0825 O   0  0  0  0  0  0  0  0  0  0  0  0
    2.6600    4.2683   -0.0928 O   0  0  0  0  0  0  0  0  0  0  0  0
    4.8726    4.2652    0.0826 O   0  0  0  0  0  0  0  0  0  0  0  0
    5.7218   -2.1552   -0.0878 C   0  0  0  0  0  0  0  0  0  0  0  0
    7.0560   -2.7764   -0.1187 C   0  0  0  0  0  0  0  0  0  0  0  0
    8.1200   -3.2719   -0.1434 C   0  0  0  0  0  0  0  0  0  0  0  0
  1  2  2  0      
  2  3  1  0      
  3  4  2  0      
  4  5  1  0      
  5  6  2  0      
  6  1  1  0      
  4  7  1  0      
  7  8  2  0      
  8  9  1  0      
  9 10  2  0      
 10  5  1  0      
  1 11  1  0      
 10 12  1  0      
  8 13  1  0      
 12 14  2  0      
 12 15  1  0      
 13 16  1  0      
 16 17  1  0      
 17 18  3  0      
M  END
$$$$
