Untitled SYNTHESIS, SYNLETT Document-16
  corina  12080917093D 1   1.00000     0.00000 
CORINA 3.46 0026  05.08.2008
 22 25  0  0  0  0  0  0  0  0999 V2000
   -0.0167    1.3792    0.0096 C   0  0  0  0  0  0  0  0  0  0  0  0
    0.0021   -0.0041    0.0020 C   0  0  0  0  0  0  0  0  0  0  0  0
    1.1809   -0.7380   -0.0124 C   0  0  0  0  0  0  0  0  0  0  0  0
    2.4085   -0.0777   -0.0200 C   0  0  0  0  0  0  0  0  0  0  0  0
    2.3860    1.3344   -0.0130 C   0  0  0  0  0  0  0  0  0  0  0  0
    1.1897    2.0870    0.0019 C   0  0  0  0  0  0  0  0  0  0  0  0
    3.7018   -0.7577   -0.0343 C   0  0  0  0  0  0  0  0  0  0  0  0
    4.8820   -0.0816   -0.0409 C   0  0  0  0  0  0  0  0  0  0  0  0
    4.8886    1.3841   -0.0337 C   0  0  0  0  0  0  0  0  0  0  0  0
    3.5843    2.0227   -0.0207 C   0  0  0  0  0  0  0  0  0  0  0  0
   -1.5289    2.2317    0.0214 Cl  0  0  0  0  0  0  0  0  0  0  0  0
   -1.5098   -0.8573    0.0114 Cl  0  0  0  0  0  0  0  0  0  0  0  0
    1.1259   -2.4731   -0.0201 Cl  0  0  0  0  0  0  0  0  0  0  0  0
    3.7332   -2.4934   -0.0427 Cl  0  0  0  0  0  0  0  0  0  0  0  0
    6.3819   -0.9555   -0.0571 Cl  0  0  0  0  0  0  0  0  0  0  0  0
    3.7080    3.4020   -0.0150 C   0  0  0  0  0  0  0  0  0  0  0  0
    2.5069    4.1335   -0.0019 C   0  0  0  0  0  0  0  0  0  0  0  0
    1.2977    3.4948    0.0066 C   0  0  0  0  0  0  0  0  0  0  0  0
    5.7416    2.3827   -0.0359 N   0  0  0  0  0  0  0  0  0  0  0  0
    5.0526    3.6158   -0.0243 N   0  0  0  0  0  0  0  0  0  0  0  0
    2.5599    5.8687    0.0066 Cl  0  0  0  0  0  0  0  0  0  0  0  0
   -0.1537    4.4471    0.0220 Cl  0  0  0  0  0  0  0  0  0  0  0  0
  1  2  2  0      
  2  3  1  0      
  3  4  2  0      
  4  5  1  0      
  5  6  1  0      
  6  1  1  0      
  4  7  1  0      
  7  8  2  0      
  8  9  1  0      
  9 10  1  0      
 10  5  2  0      
  1 11  1  0      
  2 12  1  0      
  3 13  1  0      
  7 14  1  0      
  8 15  1  0      
 10 16  1  0      
 16 17  2  0      
 17 18  1  0      
 18  6  2  0      
 19 20  1  0      
 20 16  1  0      
 19  9  2  0      
 17 21  1  0      
 18 22  1  0      
M  END
$$$$
