m582.mol
  corina  12080917093D 1   1.00000     0.00000 
CORINA 3.46 0026  05.08.2008
 28 29  0  0  0  0  0  0  0  0999 V2000
    0.6023    2.6670   -0.9182 C   0  0  0  0  0  0  0  0  0  0  0  0
    1.2939    2.6909   -2.1161 C   0  0  0  0  0  0  0  0  0  0  0  0
    2.5336    2.0820   -2.1952 C   0  0  0  0  0  0  0  0  0  0  0  0
    3.0423    1.4599   -1.0464 C   0  0  0  0  0  0  0  0  0  0  0  0
    2.2798    1.4805    0.1251 C   0  0  0  0  0  0  0  0  0  0  0  0
    1.1050    2.0739    0.1481 N   0  0  0  0  0  0  0  0  0  0  0  0
    4.3565    0.7960   -1.0735 C   0  0  0  0  0  0  0  0  0  0  0  0
    4.8182    0.2214    0.0005 N   0  0  0  0  0  0  0  0  0  0  0  0
    6.0392   -0.3955   -0.0247 C   0  0  0  0  0  0  0  0  0  0  0  0
    6.9488   -0.1916    1.0160 C   0  0  0  0  0  0  0  0  0  0  0  0
    8.1776   -0.8149    0.9864 C   0  0  0  0  0  0  0  0  0  0  0  0
    8.5125   -1.6444   -0.0760 C   0  0  0  0  0  0  0  0  0  0  0  0
    7.6116   -1.8496   -1.1129 C   0  0  0  0  0  0  0  0  0  0  0  0
    6.3779   -1.2356   -1.0883 C   0  0  0  0  0  0  0  0  0  0  0  0
    9.7255   -2.2567   -0.1012 O   0  0  0  0  0  0  0  0  0  0  0  0
    9.9406   -3.2208    0.8080 C   0  0  0  0  0  0  0  0  0  0  0  0
   11.3030   -3.8539    0.9270 C   0  0  0  0  0  0  0  0  0  0  0  0
    9.0419   -3.5809    1.5309 O   0  0  0  0  0  0  0  0  0  0  0  0
   11.2780   -4.9144    2.0296 C   0  0  0  0  0  0  0  0  0  0  0  0
   12.6612   -5.5571    2.1504 C   0  0  0  0  0  0  0  0  0  0  0  0
   12.6363   -6.6177    3.2529 C   0  0  0  0  0  0  0  0  0  0  0  0
   14.0195   -7.2604    3.3737 C   0  0  0  0  0  0  0  0  0  0  0  0
   13.9945   -8.3209    4.4763 C   0  0  0  0  0  0  0  0  0  0  0  0
   15.3777   -8.9636    4.5971 C   0  0  0  0  0  0  0  0  0  0  0  0
   15.3527  -10.0241    5.6996 C   0  0  0  0  0  0  0  0  0  0  0  0
   16.7359  -10.6669    5.8204 C   0  0  0  0  0  0  0  0  0  0  0  0
   16.7110  -11.7274    6.9230 C   0  0  0  0  0  0  0  0  0  0  0  0
   18.0942  -12.3701    7.0438 C   0  0  0  0  0  0  0  0  0  0  0  0
  1  2  2  0  0  0  0
  2  3  1  0  0  0  0
  3  4  2  0  0  0  0
  4  5  1  0  0  0  0
  5  6  2  0  0  0  0
  1  6  1  0  0  0  0
  4  7  1  0  0  0  0
  7  8  2  0  0  0  0
  8  9  1  0  0  0  0
  9 10  2  0  0  0  0
 10 11  1  0  0  0  0
 11 12  2  0  0  0  0
 12 13  1  0  0  0  0
 13 14  2  0  0  0  0
  9 14  1  0  0  0  0
 12 15  1  0  0  0  0
 15 16  1  0  0  0  0
 16 17  1  0  0  0  0
 16 18  2  0  0  0  0
 17 19  1  0  0  0  0
 19 20  1  0  0  0  0
 20 21  1  0  0  0  0
 21 22  1  0  0  0  0
 22 23  1  0  0  0  0
 23 24  1  0  0  0  0
 24 25  1  0  0  0  0
 25 26  1  0  0  0  0
 26 27  1  0  0  0  0
 27 28  1  0  0  0  0
M  END
$$$$
