
  Chem3D  04280912573D

 49 51  0  0  0  0  0  0  0  0999 V2000
   -2.3009   -2.7255   -0.8534 N   0  0  0  0  0  0  0  0  0  0  0  0
   -1.8674   -1.4658   -0.2254 C   0  0  0  0  0  0  0  0  0  0  0  0
   -3.1904   -0.6824   -0.3254 C   0  0  0  0  0  0  0  0  0  0  0  0
   -4.2808   -1.7526   -0.1476 C   0  0  0  0  0  0  0  0  0  0  0  0
   -3.7568   -2.9600   -0.9451 C   0  0  0  0  0  0  0  0  0  0  0  0
   -1.4448   -3.6021   -1.5091 C   0  0  0  0  0  0  0  0  0  0  0  0
   -0.0831   -3.6234   -1.5974 C   0  0  0  0  0  0  0  0  0  0  0  0
    0.8155   -2.7802   -0.7993 C   0  0  0  0  0  0  0  0  0  0  0  0
    2.0212   -2.3668   -1.2741 C   0  0  0  0  0  0  0  0  0  0  0  0
    2.9899   -1.6205   -0.4918 C   0  0  0  0  0  0  0  0  0  0  0  0
    2.8354   -1.3154    0.7642 N   0  0  0  0  0  0  0  0  0  0  0  0
    3.7820   -0.6668    1.5895 C   0  0  0  0  0  0  0  0  0  0  0  0
    5.0587   -0.2711    1.1361 C   0  0  0  0  0  0  0  0  0  0  0  0
    6.0087    0.2811    1.9848 C   0  0  0  0  0  0  0  0  0  0  0  0
    5.7370    0.4534    3.3600 C   0  0  0  0  0  0  0  0  0  0  0  0
    4.4542    0.0780    3.8074 C   0  0  0  0  0  0  0  0  0  0  0  0
    3.4544   -0.4640    2.9645 C   0  0  0  0  0  0  0  0  0  0  0  0
    2.1977   -0.7515    3.5204 N   0  3  0  0  0  0  0  0  0  0  0  0
    2.0005   -0.5767    4.8510 O   0  0  0  0  0  0  0  0  0  0  0  0
    1.0861   -1.0965    2.8300 O   0  5  0  0  0  0  0  0  0  0  0  0
    6.7029    0.9812    4.2123 N   0  3  0  0  0  0  0  0  0  0  0  0
    7.9265    1.3350    3.7519 O   0  0  0  0  0  0  0  0  0  0  0  0
    6.4551    1.1411    5.5330 O   0  5  0  0  0  0  0  0  0  0  0  0
    0.5422   -4.6681   -2.4538 C   0  0  0  0  0  0  0  0  0  0  0  0
    0.0657   -4.9110   -3.7488 C   0  0  0  0  0  0  0  0  0  0  0  0
    0.6654   -5.8806   -4.5586 C   0  0  0  0  0  0  0  0  0  0  0  0
    1.7499   -6.6158   -4.0824 C   0  0  0  0  0  0  0  0  0  0  0  0
    2.2326   -6.3836   -2.7926 C   0  0  0  0  0  0  0  0  0  0  0  0
    1.6295   -5.4177   -1.9841 C   0  0  0  0  0  0  0  0  0  0  0  0
   -5.2841   -1.4133   -0.4923 H   0  0  0  0  0  0  0  0  0  0  0  0
   -4.3533   -2.0163    0.9350 H   0  0  0  0  0  0  0  0  0  0  0  0
   -3.2874   -0.2389   -1.3464 H   0  0  0  0  0  0  0  0  0  0  0  0
   -3.2601    0.1424    0.4193 H   0  0  0  0  0  0  0  0  0  0  0  0
   -4.0572   -3.9284   -0.4843 H   0  0  0  0  0  0  0  0  0  0  0  0
   -4.0875   -2.9105   -2.0087 H   0  0  0  0  0  0  0  0  0  0  0  0
   -1.0577   -0.9419   -0.7804 H   0  0  0  0  0  0  0  0  0  0  0  0
   -1.5959   -1.6431    0.8409 H   0  0  0  0  0  0  0  0  0  0  0  0
    3.0895   -6.9626   -2.4128 H   0  0  0  0  0  0  0  0  0  0  0  0
    2.2279   -7.3755   -4.7227 H   0  0  0  0  0  0  0  0  0  0  0  0
    0.2877   -6.0543   -5.5792 H   0  0  0  0  0  0  0  0  0  0  0  0
    2.0210   -5.2579   -0.9663 H   0  0  0  0  0  0  0  0  0  0  0  0
   -0.7728   -4.3242   -4.1565 H   0  0  0  0  0  0  0  0  0  0  0  0
   -2.0071   -4.4022   -2.0209 H   0  0  0  0  0  0  0  0  0  0  0  0
    0.5155   -2.5082    0.2238 H   0  0  0  0  0  0  0  0  0  0  0  0
    2.3042   -2.6201   -2.3104 H   0  0  0  0  0  0  0  0  0  0  0  0
    3.9140   -1.3398   -1.0149 H   0  0  0  0  0  0  0  0  0  0  0  0
    4.2306    0.2330    4.8750 H   0  0  0  0  0  0  0  0  0  0  0  0
    6.9900    0.5607    1.5676 H   0  0  0  0  0  0  0  0  0  0  0  0
    5.3681   -0.4012    0.0883 H   0  0  0  0  0  0  0  0  0  0  0  0
  1  2  1  0      
  5  1  1  0      
  6  1  1  0      
  2  3  1  0      
  2 36  1  0      
  2 37  1  0      
  3  4  1  0      
  3 32  1  0      
  3 33  1  0      
  4  5  1  0      
  4 30  1  0      
  4 31  1  0      
  5 34  1  0      
  5 35  1  0      
  7  6  2  0      
  6 43  1  0      
  8  7  1  0      
  7 24  1  0      
  9  8  2  0      
  8 44  1  0      
 10  9  1  0      
  9 45  1  0      
 11 10  2  0      
 10 46  1  0      
 11 12  1  0      
 12 13  2  0      
 17 12  1  0      
 13 14  1  0      
 13 49  1  0      
 14 15  2  0      
 14 48  1  0      
 15 16  1  0      
 15 21  1  0      
 16 17  2  0      
 16 47  1  0      
 17 18  1  0      
 18 19  2  0      
 18 20  1  0      
 21 22  2  0      
 21 23  1  0      
 24 25  2  0      
 29 24  1  0      
 25 26  1  0      
 25 42  1  0      
 26 27  2  0      
 26 40  1  0      
 27 28  1  0      
 27 39  1  0      
 28 29  2  0      
 28 38  1  0      
 29 41  1  0      
M  CHG  4  18   1  20  -1  21   1  23  -1
M  END
