
  corina  12080917093D 1   1.00000     0.00000 
CORINA 3.46 0026  05.08.2008
 49 51  0  0  0  0  0  0  0  0999 V2000
   -0.0216    1.4603    0.1476 N   0  0  0  0  0  0  0  0  0  0  0  0
    1.3660    1.9457    0.1649 C   0  0  0  0  0  0  0  0  0  0  0  0
    2.2837    0.7073    0.2419 C   0  0  0  0  0  0  0  0  0  0  0  0
    1.3807   -0.4289   -0.3067 C   0  0  0  0  0  0  0  0  0  0  0  0
   -0.0089   -0.0112    0.2356 C   0  0  0  0  0  0  0  0  0  0  0  0
   -1.1051    2.2204    0.0712 C   0  0  0  0  0  0  0  0  0  0  0  0
   -0.9834    3.6846    0.1471 C   0  0  0  0  0  0  0  0  0  0  0  0
    0.2737    4.2787    0.1448 C   0  0  0  0  0  0  0  0  0  0  0  0
    0.3969    5.6568    0.3570 C   0  0  0  0  0  0  0  0  0  0  0  0
    1.6606    6.2540    0.3547 C   0  0  0  0  0  0  0  0  0  0  0  0
    1.7765    7.5513    0.5545 N   0  0  0  0  0  0  0  0  0  0  0  0
    2.9941    8.1096    0.6519 C   0  0  0  0  0  0  0  0  0  0  0  0
    4.0081    7.7669   -0.2653 C   0  0  0  0  0  0  0  0  0  0  0  0
    5.2424    8.3415   -0.1563 C   0  0  0  0  0  0  0  0  0  0  0  0
    5.5001    9.2588    0.8522 C   0  0  0  0  0  0  0  0  0  0  0  0
    4.5099    9.6038    1.7615 C   0  0  0  0  0  0  0  0  0  0  0  0
    3.2664    9.0473    1.6689 C   0  0  0  0  0  0  0  0  0  0  0  0
    2.2105    9.4223    2.6362 N   0  3  0  0  0  0  0  0  0  0  0  0
    2.4678   10.2985    3.5851 O   0  0  0  0  0  0  0  0  0  0  0  0
    1.0137    8.8796    2.5478 O   0  5  0  0  0  0  0  0  0  0  0  0
    6.8422    9.8741    0.9596 N   0  3  0  0  0  0  0  0  0  0  0  0
    7.7858    9.5502    0.0999 O   0  0  0  0  0  0  0  0  0  0  0  0
    7.0926   10.7454    1.9149 O   0  5  0  0  0  0  0  0  0  0  0  0
   -2.1924    4.5206    0.2255 C   0  0  0  0  0  0  0  0  0  0  0  0
   -2.4496    5.2824    1.3743 C   0  0  0  0  0  0  0  0  0  0  0  0
   -3.5831    6.0621    1.4388 C   0  0  0  0  0  0  0  0  0  0  0  0
   -4.4681    6.0952    0.3727 C   0  0  0  0  0  0  0  0  0  0  0  0
   -4.2219    5.3451   -0.7664 C   0  0  0  0  0  0  0  0  0  0  0  0
   -3.0905    4.5642   -0.8504 C   0  0  0  0  0  0  0  0  0  0  0  0
    1.3872   -0.4412   -1.3966 H   0  0  0  0  0  0  0  0  0  0  0  0
    1.6824   -1.3962    0.0951 H   0  0  0  0  0  0  0  0  0  0  0  0
    3.1632    0.8393   -0.3882 H   0  0  0  0  0  0  0  0  0  0  0  0
    2.5735    0.5056    1.2732 H   0  0  0  0  0  0  0  0  0  0  0  0
   -0.1233   -0.3302    1.2716 H   0  0  0  0  0  0  0  0  0  0  0  0
   -0.8004   -0.4351   -0.3824 H   0  0  0  0  0  0  0  0  0  0  0  0
    1.5744    2.5053   -0.7470 H   0  0  0  0  0  0  0  0  0  0  0  0
    1.5259    2.5804    1.0365 H   0  0  0  0  0  0  0  0  0  0  0  0
   -4.9170    5.3765   -1.5923 H   0  0  0  0  0  0  0  0  0  0  0  0
   -5.3549    6.7088    0.4301 H   0  0  0  0  0  0  0  0  0  0  0  0
   -3.7831    6.6493    2.3229 H   0  0  0  0  0  0  0  0  0  0  0  0
   -2.8979    3.9838   -1.7406 H   0  0  0  0  0  0  0  0  0  0  0  0
   -1.7613    5.2575    2.2061 H   0  0  0  0  0  0  0  0  0  0  0  0
   -2.0772    1.7648   -0.0468 H   0  0  0  0  0  0  0  0  0  0  0  0
    1.1551    3.6769   -0.0207 H   0  0  0  0  0  0  0  0  0  0  0  0
   -0.4845    6.2585    0.5225 H   0  0  0  0  0  0  0  0  0  0  0  0
    2.5420    5.6522    0.1892 H   0  0  0  0  0  0  0  0  0  0  0  0
    4.7225   10.3185    2.5428 H   0  0  0  0  0  0  0  0  0  0  0  0
    6.0209    8.0806   -0.8579 H   0  0  0  0  0  0  0  0  0  0  0  0
    3.8099    7.0526   -1.0507 H   0  0  0  0  0  0  0  0  0  0  0  0
  1  2  1  0      
  5  1  1  0      
  6  1  1  0      
  2  3  1  0      
  2 36  1  0      
  2 37  1  0      
  3  4  1  0      
  3 32  1  0      
  3 33  1  0      
  4  5  1  0      
  4 30  1  0      
  4 31  1  0      
  5 34  1  0      
  5 35  1  0      
  7  6  2  0      
  6 43  1  0      
  8  7  1  0      
  7 24  1  0      
  9  8  2  0      
  8 44  1  0      
 10  9  1  0      
  9 45  1  0      
 11 10  2  0      
 10 46  1  0      
 11 12  1  0      
 12 13  2  0      
 17 12  1  0      
 13 14  1  0      
 13 49  1  0      
 14 15  2  0      
 14 48  1  0      
 15 16  1  0      
 15 21  1  0      
 16 17  2  0      
 16 47  1  0      
 17 18  1  0      
 18 19  2  0      
 18 20  1  0      
 21 22  2  0      
 21 23  1  0      
 24 25  2  0      
 29 24  1  0      
 25 26  1  0      
 25 42  1  0      
 26 27  2  0      
 26 40  1  0      
 27 28  1  0      
 27 39  1  0      
 28 29  2  0      
 28 38  1  0      
 29 41  1  0      
M  CHG  4  18   1  20  -1  21   1  23  -1
M  END
$$$$
