Structure.mol
  corina  10291402473D 1   1.00000     0.00000 
CORINA 3.49 0023  12.04.2013
 33 36  0  0  0  0  0  0  0  0999 V2000
   -0.0168    1.3867    0.0097 C   0  0  0  0  0  0  0  0  0  0  0  0
    0.0021   -0.0041    0.0020 C   0  0  0  0  0  0  0  0  0  0  0  0
    1.1820   -0.6844   -0.0128 C   0  0  0  0  0  0  0  0  0  0  0  0
    2.4007    0.0221   -0.0206 C   0  0  0  0  0  0  0  0  0  0  0  0
    2.3795    1.4353   -0.0128 C   0  0  0  0  0  0  0  0  0  0  0  0
    1.1587    2.1044    0.0023 C   0  0  0  0  0  0  0  0  0  0  0  0
    3.5599   -0.6493   -0.0346 N   0  0  0  0  0  0  0  0  0  0  0  0
    4.7018   -0.0104   -0.0419 C   0  0  0  0  0  0  0  0  0  0  0  0
    4.7352    1.4614   -0.0348 C   0  0  0  0  0  0  0  0  0  0  0  0
    3.5591    2.1494   -0.0207 N   0  0  0  0  0  0  0  0  0  0  0  0
    6.0015   -0.7180   -0.0568 C   0  0  0  0  0  0  0  0  0  0  0  0
    7.1193    0.0445   -0.0628 N   0  0  0  0  0  0  0  0  0  0  0  0
    7.0492    1.3832   -0.0555 C   0  0  0  0  0  0  0  0  0  0  0  0
    5.9094    2.0699   -0.0421 N   0  0  0  0  0  0  0  0  0  0  0  0
    8.0940    2.0102   -0.0611 O   0  0  0  0  0  0  0  0  0  0  0  0
    6.0622   -1.9322   -0.0630 O   0  0  0  0  0  0  0  0  0  0  0  0
   -1.3360    2.1152    0.0198 C   0  0  0  0  0  0  0  0  0  0  0  0
   -1.2976   -0.7668    0.0108 C   0  0  0  0  0  0  0  0  0  0  0  0
    3.5482    3.6143   -0.0132 C   0  0  0  0  0  0  0  0  0  0  0  0
    3.5316    4.1239   -1.4313 C   0  0  0  0  0  0  0  0  0  0  0  0
    2.6139    4.9319   -1.8105 N   0  0  0  0  0  0  0  0  0  0  0  0
    2.5985    5.4056   -3.1289 N   0  0  0  0  0  0  0  0  0  0  0  0
    1.6324    6.2563   -3.5280 C   0  0  0  0  0  0  0  0  0  0  0  0
    1.6161    6.7560   -4.9189 C   0  0  0  0  0  0  0  0  0  0  0  0
    0.7742    6.6126   -2.7440 O   0  0  0  0  0  0  0  0  0  0  0  0
    0.6168    7.6372   -5.3356 C   0  0  0  0  0  0  0  0  0  0  0  0
    0.6075    8.0998   -6.6352 C   0  0  0  0  0  0  0  0  0  0  0  0
    1.5857    7.6923   -7.5249 C   0  0  0  0  0  0  0  0  0  0  0  0
    2.5787    6.8187   -7.1185 C   0  0  0  0  0  0  0  0  0  0  0  0
    2.6033    6.3533   -5.8201 C   0  0  0  0  0  0  0  0  0  0  0  0
    1.5694    8.1927   -8.9178 N   0  3  0  0  0  0  0  0  0  0  0  0
    0.6962    8.9615   -9.2786 O   0  0  0  0  0  0  0  0  0  0  0  0
    2.4291    7.8357   -9.7033 O   0  5  0  0  0  0  0  0  0  0  0  0
  1  2  2  0      
  2  3  1  0      
  3  4  2  0      
  4  5  1  0      
  5  6  2  0      
  6  1  1  0      
  7  8  2  0      
  8  9  1  0      
  9 10  1  0      
 11 12  1  0      
 12 13  1  0      
 13 14  1  0      
  5 10  1  0      
  4  7  1  0      
  9 14  2  0      
  8 11  1  0      
 13 15  2  0      
 11 16  2  0      
  1 17  1  0      
  2 18  1  0      
 10 19  1  0      
 19 20  1  0      
 20 21  2  0      
 22 23  1  0      
 23 24  1  0      
 23 25  2  0      
 24 26  2  0      
 26 27  1  0      
 27 28  2  0      
 28 29  1  0      
 29 30  2  0      
 30 24  1  0      
 22 21  1  4      
 31 32  2  0      
 31 33  1  0      
 28 31  1  0      
M  CHG  2  31   1  33  -1
M  STY  1   1 SUP
M  SLB  1   1   1
M  SAL   1  3  31  32  33
M  SBL   1  1  36
M  SMT   1 NO2
M  SBV   1  36   -0.7127   -0.4096
M  END
$$$$
