m429.skc
  corina  12080917083D 1   1.00000     0.00000 
CORINA 3.46 0026  05.08.2008
 35 40  0  0  0  0  0  0  0  0999 V2000
    1.0560    0.1648   -1.9282 C   0  0  0  0  0  0  0  0  0  0  0  0
   -0.0503    1.0131   -2.0811 C   0  0  0  0  0  0  0  0  0  0  0  0
    0.0698    2.3757   -1.7711 C   0  0  0  0  0  0  0  0  0  0  0  0
    1.2663    2.8704   -1.3210 C   0  0  0  0  0  0  0  0  0  0  0  0
    2.3604    2.0239   -1.1715 C   0  0  0  0  0  0  0  0  0  0  0  0
    2.2474    0.6713   -1.4773 C   0  0  0  0  0  0  0  0  0  0  0  0
    3.5424    2.5195   -0.7259 O   0  0  0  0  0  0  0  0  0  0  0  0
    3.6346    3.8591   -0.5179 C   0  0  0  0  0  0  0  0  0  0  0  0
    3.0834    4.4212    0.6197 C   0  0  0  0  0  0  0  0  0  0  0  0
    3.1815    5.8020    0.8297 C   0  0  0  0  0  0  0  0  0  0  0  0
    3.8373    6.6023   -0.1147 C   0  0  0  0  0  0  0  0  0  0  0  0
    4.3816    6.0278   -1.2437 C   0  0  0  0  0  0  0  0  0  0  0  0
    4.2876    4.6624   -1.4455 C   0  0  0  0  0  0  0  0  0  0  0  0
   -1.2277    0.5195   -2.5258 N   0  0  0  0  0  0  0  0  0  0  0  0
    2.6425    6.3635    1.9447 N   0  0  0  0  0  0  0  0  0  0  0  0
   -2.3477    0.8593   -1.9323 C   0  0  0  0  0  0  0  0  0  0  0  0
   -2.5164    1.7700   -0.7741 C   0  0  0  0  0  0  0  0  0  0  0  0
   -1.6265    2.3524   -0.1849 O   0  0  0  0  0  0  0  0  0  0  0  0
   -4.5764    1.0498   -1.3623 C   0  0  0  0  0  0  0  0  0  0  0  0
   -3.7185    0.4228   -2.2766 C   0  0  0  0  0  0  0  0  0  0  0  0
   -4.2311   -0.4198   -3.2585 C   0  0  0  0  0  0  0  0  0  0  0  0
   -5.5922   -0.6380   -3.3308 C   0  0  0  0  0  0  0  0  0  0  0  0
   -6.4428   -0.0203   -2.4293 C   0  0  0  0  0  0  0  0  0  0  0  0
   -5.9441    0.8177   -1.4518 C   0  0  0  0  0  0  0  0  0  0  0  0
    1.6410    7.2029    1.8373 C   0  0  0  0  0  0  0  0  0  0  0  0
    1.0257    8.0202    2.9139 C   0  0  0  0  0  0  0  0  0  0  0  0
    0.8811    7.5480    0.6162 C   0  0  0  0  0  0  0  0  0  0  0  0
   -0.0873    8.4852    1.0021 C   0  0  0  0  0  0  0  0  0  0  0  0
   -0.9563    8.9917    0.0426 C   0  0  0  0  0  0  0  0  0  0  0  0
   -0.8609    8.5730   -1.2698 C   0  0  0  0  0  0  0  0  0  0  0  0
    0.0968    7.6466   -1.6473 C   0  0  0  0  0  0  0  0  0  0  0  0
    0.9692    7.1322   -0.7093 C   0  0  0  0  0  0  0  0  0  0  0  0
    1.3622    8.0373    4.0817 O   0  0  0  0  0  0  0  0  0  0  0  0
    0.0305    8.7378    2.3654 N   0  0  0  0  0  0  0  0  0  0  0  0
   -3.8288    1.8365   -0.4920 N   0  0  0  0  0  0  0  0  0  0  0  0
  1  2  2  0  0  0
  2  3  1  0  0  0
  3  4  2  0  0  0
  4  5  1  0  0  0
  5  6  2  0  0  0
  6  1  1  0  0  0
  5  7  1  0  0  0
  7  8  1  0  0  0
  8  9  2  0  0  0
  9 10  1  0  0  0
 10 11  2  0  0  0
 11 12  1  0  0  0
 12 13  2  0  0  0
 13  8  1  0  0  0
  2 14  1  0  0  0
 10 15  1  0  0  0
 14 16  2  0  0  0
 16 20  1  0  0  0
 17 16  1  0  0  0
 17 18  2  0  0  0
 19 20  2  0  0  0
 20 21  1  0  0  0
 21 22  2  0  0  0
 22 23  1  0  0  0
 23 24  2  0  0  0
 24 19  1  0  0  0
 15 25  2  0  0  0
 25 26  1  0  0  0
 27 25  1  0  0  0
 27 28  2  0  0  0
 28 29  1  0  0  0
 29 30  2  0  0  0
 30 31  1  0  0  0
 31 32  2  0  0  0
 32 27  1  0  0  0
 26 33  2  0  0  0
 26 34  1  0  0  0
 28 34  1  0  0  0
 19 35  1  0  0  0
 17 35  1  0  0  0
M  STY  1   1 SUP
M  SLB  1   1   1
M  SAL   1  1  34
M  SBL   1  2  37  38
M  SMT   1 N
M  SBV   1 37   -8.4560   18.2911
M  SBV   1 38   -9.6737   17.7506
M  STY  1   2 SUP
M  SLB  1   2   2
M  SAL   2  1  35
M  SBL   2  2  39  40
M  SMT   2 N
M  SBV   2 39   -8.4360   18.4593
M  SBV   2 40   -9.5212   17.6792
M  END
$$$$
