
  corina  12080917093D 1   1.00000     0.00000 
CORINA 3.46 0026  05.08.2008
 29 32  0  0  0  0  0  0  0  0999 V2000
   -0.0158    1.3124    0.0093 C   0  0  0  0  0  0  0  0  0  0  0  0
   -1.3610    1.7312    0.0182 C   0  0  0  0  0  0  0  0  0  0  0  0
    0.0021   -0.0041    0.0020 N   0  0  0  0  0  0  0  0  0  0  0  0
   -2.1395    0.6273    0.0161 C   0  0  0  0  0  0  0  0  0  0  0  0
   -1.3229   -0.4585    0.0122 N   0  0  3  0  0  0  0  0  0  0  0  0
   -1.8455    3.1582    0.0284 C   0  0  0  0  0  0  0  0  0  0  0  0
   -1.7340   -1.7979    0.0090 C   0  0  0  0  0  0  0  0  0  0  0  0
   -0.7894   -2.8156   -0.0050 C   0  0  0  0  0  0  0  0  0  0  0  0
   -1.1979   -4.1349   -0.0077 C   0  0  0  0  0  0  0  0  0  0  0  0
   -2.5459   -4.4429    0.0030 C   0  0  0  0  0  0  0  0  0  0  0  0
   -3.4891   -3.4317    0.0170 C   0  0  0  0  0  0  0  0  0  0  0  0
   -3.0869   -2.1104    0.0255 C   0  0  0  0  0  0  0  0  0  0  0  0
    1.1731    2.1999    0.0027 C   0  0  0  0  0  0  0  0  0  0  0  0
    2.3301    1.8224    0.6819 C   0  0  0  0  0  0  0  0  0  0  0  0
    3.4356    2.6469    0.6693 C   0  0  0  0  0  0  0  0  0  0  0  0
    3.3966    3.8520   -0.0188 C   0  0  0  0  0  0  0  0  0  0  0  0
    2.2455    4.2309   -0.6959 C   0  0  0  0  0  0  0  0  0  0  0  0
    1.1372    3.4102   -0.6876 C   0  0  0  0  0  0  0  0  0  0  0  0
    4.4873    4.6625   -0.0291 O   0  0  0  0  0  0  0  0  0  0  0  0
    4.3782    5.8876   -0.7566 C   0  0  0  0  0  0  0  0  0  0  0  0
   -1.7816    3.7053   -1.3291 N   0  0  0  0  0  0  0  0  0  0  0  0
   -2.1827    5.0225   -1.5716 C   0  0  0  0  0  0  0  0  0  0  0  0
   -2.1225    5.5420   -2.8579 C   0  0  0  0  0  0  0  0  0  0  0  0
   -2.5191    6.8439   -3.0958 C   0  0  0  0  0  0  0  0  0  0  0  0
   -2.9765    7.6309   -2.0532 C   0  0  0  0  0  0  0  0  0  0  0  0
   -3.0372    7.1151   -0.7682 C   0  0  0  0  0  0  0  0  0  0  0  0
   -2.6472    5.8114   -0.5271 C   0  0  0  0  0  0  0  0  0  0  0  0
   -3.6102    8.1049    0.5379 Cl  0  0  0  0  0  0  0  0  0  0  0  0
   -3.3638    8.9037   -2.2883 F   0  0  0  0  0  0  0  0  0  0  0  0
 13 14  2  0  0  0  0
  5  7  1  0  0  0  0
 14 15  1  0  0  0  0
  3  1  2  0  0  0  0
 15 16  2  0  0  0  0
  7  8  2  0  0  0  0
 16 17  1  0  0  0  0
  4  2  2  0  0  0  0
 17 18  2  0  0  0  0
 18 13  1  0  0  0  0
  8  9  1  0  0  0  0
 16 19  1  0  0  0  0
  5  3  1  0  0  0  0
 19 20  1  0  0  0  0
  9 10  2  0  0  0  0
  6 21  1  0  0  0  0
  5  4  1  0  0  0  0
 21 22  1  0  0  0  0
 10 11  1  0  0  0  0
 22 23  2  0  0  0  0
 23 24  1  0  0  0  0
 11 12  2  0  0  0  0
 24 25  2  0  0  0  0
 12  7  1  0  0  0  0
 25 26  1  0  0  0  0
  2  6  1  0  0  0  0
 26 27  2  0  0  0  0
 27 22  1  0  0  0  0
  1 13  1  0  0  0  0
 26 28  1  0  0  0  0
  2  1  1  0  0  0  0
 25 29  1  0  0  0  0
M  END
$$$$
