m491.mol
  corina  12080917093D 1   1.00000     0.00000 
CORINA 3.46 0026  05.08.2008
 22 23  0  0  0  0  0  0  0  0999 V2000
   -0.0163    1.3528    0.0095 C   0  0  0  0  0  0  0  0  0  0  0  0
    0.0021   -0.0041    0.0020 N   0  0  0  0  0  0  0  0  0  0  0  0
    1.3390   -0.4218   -0.0130 N   0  0  0  0  0  0  0  0  0  0  0  0
    2.1044    0.6543   -0.0145 C   0  0  0  0  0  0  0  0  0  0  0  0
    1.2608    1.7874   -0.0004 C   0  0  0  0  0  0  0  0  0  0  0  0
    3.5754    0.6703   -0.0277 C   0  0  0  0  0  0  0  0  0  0  0  0
    4.3513    1.7194   -0.0286 N   0  0  0  0  0  0  0  0  0  0  0  0
    5.6991    1.3760   -0.0428 N   0  0  0  0  0  0  0  0  0  0  0  0
    5.8840    0.0961   -0.0520 C   0  0  0  0  0  0  0  0  0  0  0  0
    4.5031   -0.5286   -0.0365 C   0  0  0  0  0  0  0  0  0  0  0  0
    7.2055   -0.6281   -0.0682 C   0  0  0  0  0  0  0  0  0  0  0  0
    8.3421    0.3878   -0.1977 C   0  0  0  0  0  0  0  0  0  0  0  0
    7.3713   -1.4160    1.2328 C   0  0  0  0  0  0  0  0  0  0  0  0
   -1.2475    2.2218    0.0203 C   0  0  0  0  0  0  0  0  0  0  0  0
   -0.9787    3.4767    0.8532 C   0  0  0  0  0  0  0  0  0  0  0  0
   -1.5988    2.6264   -1.4128 C   0  0  0  0  0  0  0  0  0  0  0  0
   -1.1723   -0.8799    0.0090 C   0  0  0  0  0  0  0  0  0  0  0  0
   -1.5891   -1.1725   -1.4094 C   0  0  0  0  0  0  0  0  0  0  0  0
   -0.9688   -0.6982   -2.3314 O   0  0  0  0  0  0  0  0  0  0  0  0
   -2.6494   -1.9601   -1.6484 O   0  0  0  0  0  0  0  0  0  0  0  0
   -2.9932   -2.1988   -3.0388 C   0  0  0  0  0  0  0  0  0  0  0  0
   -4.2188   -3.1117   -3.1116 C   0  0  0  0  0  0  0  0  0  0  0  0
  1  2  1  0  0  0
  2  3  1  0  0  0
  3  4  2  0  0  0
  4  5  1  0  0  0
  5  1  2  0  0  0
  4  6  1  0  0  0
  6  7  2  0  0  0
  7  8  1  0  0  0
  8  9  2  0  0  0
  9 10  1  0  0  0
 10  6  1  0  0  0
  9 11  1  0  0  0
 11 12  1  0  0  0
 11 13  1  0  0  0
  1 14  1  0  0  0
 14 15  1  0  0  0
 14 16  1  0  0  0
  2 17  1  0  0  0
 17 18  1  0  0  0
 18 19  2  0  0  0
 18 20  1  0  0  0
 20 21  1  0  0  0
 21 22  1  0  0  0
M  END
$$$$
