Untitled Glorius_Org. Lett._2009_11_1019-1
  corina  11171016093D 1   1.00000     0.00000 
CORINA 3.46 0026  05.08.2008
 32 34  0  0  0  0  0  0  0  0999 V2000
   -0.0449    1.3288   -0.0181 C   0  0  0  0  0  0  0  0  0  0  0  0
   -0.0287   -0.0575   -0.0501 C   0  0  0  0  0  0  0  0  0  0  0  0
    1.1893   -0.7356   -0.1060 C   0  0  0  0  0  0  0  0  0  0  0  0
    2.3765   -0.0191   -0.1292 C   0  0  0  0  0  0  0  0  0  0  0  0
    2.3506    1.3627   -0.0969 C   0  0  0  0  0  0  0  0  0  0  0  0
    1.1435    2.0347   -0.0416 C   0  0  0  0  0  0  0  0  0  0  0  0
   -1.2309   -0.7744   -0.0260 N   0  0  0  0  0  0  0  0  0  0  0  0
    1.2130   -2.1349   -0.1381 N   0  0  0  0  0  0  0  0  0  0  0  0
   -2.2770   -0.3122    0.6871 C   0  0  0  0  0  0  0  0  0  0  0  0
    2.2670   -2.7788   -0.6775 C   0  0  0  0  0  0  0  0  0  0  0  0
    3.1490   -2.1475   -1.2266 O   0  0  0  0  0  0  0  0  0  0  0  0
    2.3506   -4.2526   -0.6015 C   0  0  0  0  0  0  0  0  0  0  0  0
   -2.2066    0.7691    1.2383 O   0  0  0  0  0  0  0  0  0  0  0  0
   -3.5099   -1.1199    0.7990 C   0  0  0  0  0  0  0  0  0  0  0  0
   -4.5951   -0.6441    1.5368 C   0  0  0  0  0  0  0  0  0  0  0  0
   -5.7428   -1.4029    1.6372 C   0  0  0  0  0  0  0  0  0  0  0  0
   -5.8196   -2.6332    1.0086 C   0  0  0  0  0  0  0  0  0  0  0  0
   -4.7475   -3.1106    0.2758 C   0  0  0  0  0  0  0  0  0  0  0  0
   -3.5961   -2.3593    0.1625 C   0  0  0  0  0  0  0  0  0  0  0  0
    3.4409   -4.9226   -1.1592 C   0  0  0  0  0  0  0  0  0  0  0  0
    3.5129   -6.2983   -1.0843 C   0  0  0  0  0  0  0  0  0  0  0  0
    2.5075   -7.0137   -0.4586 C   0  0  0  0  0  0  0  0  0  0  0  0
    1.4238   -6.3559    0.0958 C   0  0  0  0  0  0  0  0  0  0  0  0
    1.3425   -4.9801    0.0334 C   0  0  0  0  0  0  0  0  0  0  0  0
   -7.0763   -3.4569    1.1231 C   0  0  0  0  0  0  0  0  0  0  0  0
    2.5927   -8.5163   -0.3811 C   0  0  0  0  0  0  0  0  0  0  0  0
   -7.9866   -3.1137    0.0277 N   0  0  0  0  0  0  0  0  0  0  0  0
   -8.3099   -3.9043   -0.7029 N   0  3  0  0  0  0  0  0  0  0  0  0
   -8.6331   -4.6949   -1.4336 N   0  5  0  0  0  0  0  0  0  0  0  0
    3.2960   -8.9030    0.8445 N   0  0  0  0  0  0  0  0  0  0  0  0
    2.7787   -9.5408    1.6119 N   0  3  0  0  0  0  0  0  0  0  0  0
    2.2614  -10.1787    2.3793 N   0  5  0  0  0  0  0  0  0  0  0  0
  1  2  2  0      
  2  3  1  0      
  3  4  2  0      
  4  5  1  0      
  5  6  2  0      
  6  1  1  0      
  2  7  1  0      
  3  8  1  0      
  7  9  1  0      
  8 10  1  0      
 10 11  2  0      
 10 12  1  0      
  9 13  2  0      
  9 14  1  0      
 14 15  2  0      
 15 16  1  0      
 16 17  2  0      
 17 18  1  0      
 18 19  2  0      
 19 14  1  0      
 12 20  2  0      
 20 21  1  0      
 21 22  2  0      
 22 23  1  0      
 23 24  2  0      
 24 12  1  0      
 17 25  1  0      
 22 26  1  0      
 25 27  1  0      
 27 28  2  0      
 28 29  2  0      
 26 30  1  0      
 30 31  2  0      
 31 32  2  0      
M  CHG  4  28   1  29  -1  31   1  32  -1
M  STY  1   1 SUP
M  SLB  1   1   1
M  SAL   1  3  27  28  29
M  SBL   1  1  29
M  SMT   1 ^N3
M  SCL   1  
M  SBV   1  29    0.8221    0.0000
M  STY  1   2 SUP
M  SLB  1   2   2
M  SAL   2  3  30  31  32
M  SBL   2  1  32
M  SMT   2 N3
M  SCL   2  
M  SBV   2  32   -0.8221    0.0000
M  END
$$$$
