m520-2.cdx
  corina  12080917093D 1   1.00000     0.00000 
CORINA 3.46 0026  05.08.2008
 23 25  0  0  0  0  0  0  0  0999 V2000
   -0.0176    1.4443    0.0100 C   0  0  0  0  0  0  0  0  0  0  0  0
    0.0021   -0.0041    0.0020 C   0  0  0  0  0  0  0  0  0  0  0  0
    1.2793   -0.5168   -0.0129 C   0  0  0  0  0  0  0  0  0  0  0  0
    2.4307    0.7399   -0.0172 S   0  0  0  0  0  0  0  0  0  0  0  0
    1.1920    1.9822    0.0013 C   0  0  0  0  0  0  0  0  0  0  0  0
   -1.1632   -0.8036    0.0093 C   0  0  0  0  0  0  0  0  0  0  0  0
   -1.0690   -2.0144    0.0023 O   0  0  0  0  0  0  0  0  0  0  0  0
    1.5862   -1.8664   -0.0224 N   0  0  0  0  0  0  0  0  0  0  0  0
    2.8737   -2.2646   -0.0369 C   0  0  0  0  0  0  0  0  0  0  0  0
    3.2079   -3.7340   -0.0472 C   0  0  0  0  0  0  0  0  0  0  0  0
    3.7633   -1.4403   -0.0417 O   0  0  0  0  0  0  0  0  0  0  0  0
    4.6630   -3.9038   -0.0623 N   0  0  0  0  0  0  0  0  0  0  0  0
    5.4298   -3.9973    1.0390 C   0  0  0  0  0  0  0  0  0  0  0  0
    6.8380   -4.1601    0.6200 C   0  0  0  0  0  0  0  0  0  0  0  0
    6.8242   -4.1534   -0.7894 C   0  0  0  0  0  0  0  0  0  0  0  0
    5.4075   -3.9925   -1.1792 C   0  0  0  0  0  0  0  0  0  0  0  0
    5.0319   -3.9544    2.1857 O   0  0  0  0  0  0  0  0  0  0  0  0
    4.9869   -3.9413   -2.3173 O   0  0  0  0  0  0  0  0  0  0  0  0
    8.0387   -4.3028    1.2967 C   0  0  0  0  0  0  0  0  0  0  0  0
    9.2185   -4.4379    0.5818 C   0  0  0  0  0  0  0  0  0  0  0  0
    9.2051   -4.4308   -0.8004 C   0  0  0  0  0  0  0  0  0  0  0  0
    8.0114   -4.2894   -1.4907 C   0  0  0  0  0  0  0  0  0  0  0  0
   -2.5228   -0.1537    0.0257 C   0  0  0  0  0  0  0  0  0  0  0  0
  1  2  1  0      
  2  3  2  0      
  3  4  1  0      
  4  5  1  0      
  5  1  2  0      
  2  6  1  0      
  6  7  2  0      
  3  8  1  0      
  8  9  1  0      
  9 10  1  0      
  9 11  2  0      
 10 12  1  0      
 12 13  1  0      
 13 14  1  0      
 14 15  2  0      
 15 16  1  0      
 16 12  1  0      
 13 17  2  0      
 16 18  2  0      
 14 19  1  0      
 19 20  2  0      
 20 21  1  0      
 21 22  2  0      
 22 15  1  0      
  6 23  1  0      
M  END
$$$$
