sr-1
  corina  02131209363D 1   1.00000     0.00000 
CORINA 3.49 0024  01.06.2011
 41 44  0  0  0  0  0  0  0  0999 V2000
    0.2781    2.2089    0.1719 S   0  0  0  0  0  0  0  0  0  0  0  0
    4.6982    3.6788   -1.1452 S   0  0  0  0  0  0  0  0  0  0  0  0
    0.1799    0.3982    0.2204 C   0  0  0  0  0  0  0  0  0  0  0  0
    0.8397   -0.1141    1.5022 C   0  0  0  0  0  0  0  0  0  0  0  0
    0.3232    0.3011    2.3677 H   0  0  0  0  0  0  0  0  0  0  0  0
   10.3882   10.3734    7.3737 C   0  0  0  0  0  0  0  0  0  0  0  0
   10.4030    9.2835    7.3677 H   0  0  0  0  0  0  0  0  0  0  0  0
   15.4030   16.4632   12.3797 C   0  0  0  0  0  0  0  0  0  0  0  0
   15.4177   15.3734   12.3737 H   0  0  0  0  0  0  0  0  0  0  0  0
   20.4177   22.5531   17.3857 C   0  0  0  0  0  0  0  0  0  0  0  0
   20.4325   21.4632   17.3797 H   0  0  0  0  0  0  0  0  0  0  0  0
   -1.2876   -0.0338    0.1942 C   0  0  0  0  0  0  0  0  0  0  0  0
   -1.7576    0.3312   -0.7190 H   0  0  0  0  0  0  0  0  0  0  0  0
    2.0618    2.5179    0.0556 C   0  0  0  0  0  0  0  0  0  0  0  0
    2.5674    2.0172    0.8813 H   0  0  0  0  0  0  0  0  0  0  0  0
    2.3186    4.0192    0.1454 C   0  0  0  0  0  0  0  0  0  0  0  0
   25.4325   28.6430   22.3916 C   0  0  0  0  0  0  0  0  0  0  0  0
   25.4473   27.5531   22.3857 H   0  0  0  0  0  0  0  0  0  0  0  0
   30.4473   34.7329   27.3976 C   0  0  0  0  0  0  0  0  0  0  0  0
   30.4621   33.6430   27.3916 H   0  0  0  0  0  0  0  0  0  0  0  0
   35.4621   40.8228   32.4036 C   0  0  0  0  0  0  0  0  0  0  0  0
   35.4769   39.7329   32.3976 H   0  0  0  0  0  0  0  0  0  0  0  0
    4.3220    3.5460    1.5656 C   0  0  0  0  0  0  0  0  0  0  0  0
    5.3882    3.3455    1.4597 H   0  0  0  0  0  0  0  0  0  0  0  0
    3.8160    4.2835    0.3242 C   0  0  0  0  0  0  0  0  0  0  0  0
    2.5836    1.9589   -1.2648 C   0  0  0  0  0  0  0  0  0  0  0  0
    2.2236    0.9381   -1.3931 H   0  0  0  0  0  0  0  0  0  0  0  0
    2.2219    2.5761   -2.0872 H   0  0  0  0  0  0  0  0  0  0  0  0
    4.1145    1.9618   -1.2649 C   0  0  0  0  0  0  0  0  0  0  0  0
    4.4805    1.5153   -2.1895 H   0  0  0  0  0  0  0  0  0  0  0  0
    4.6287    1.1608   -0.0671 C   0  0  0  0  0  0  0  0  0  0  0  0
   40.4769   46.9127   37.4096 C   0  0  0  0  0  0  0  0  0  0  0  0
   40.4916   45.8228   37.4036 H   0  0  0  0  0  0  0  0  0  0  0  0
   45.4916   53.0025   42.4156 C   0  0  0  0  0  0  0  0  0  0  0  0
   45.5064   51.9127   42.4096 H   0  0  0  0  0  0  0  0  0  0  0  0
   50.5064   59.0924   47.4216 C   0  0  0  0  0  0  0  0  0  0  0  0
   50.5212   58.0025   47.4156 H   0  0  0  0  0  0  0  0  0  0  0  0
   55.5212   65.1823   52.4276 C   0  0  0  0  0  0  0  0  0  0  0  0
   55.5360   64.0924   52.4216 H   0  0  0  0  0  0  0  0  0  0  0  0
   60.5360   71.2722   57.4336 C   0  0  0  0  0  0  0  0  0  0  0  0
   60.5508   70.1823   57.4276 H   0  0  0  0  0  0  0  0  0  0  0  0
  1  3  1  0  0  0  0
  1 14  1  0  0  0  0
  2 25  1  0  0  0  0
  2 29  1  0  0  0  0
  3  4  1  0  0  0  0
  3 12  1  0  0  0  0
  4  5  1  0  0  0  0
  4  6  0  0  0  0  0
  6  7  1  0  0  0  0
  6  8  0  0  0  0  0
  8  9  1  0  0  0  0
  8 10  0  0  0  0  0
 10 11  1  0  0  0  0
 10 12  0  0  0  0  0
 12 13  1  0  0  0  0
 14 15  1  0  0  0  0
 14 16  1  0  0  0  0
 14 26  1  0  0  0  0
 16 17  0  0  0  0  0
 16 25  1  0  0  0  0
 17 18  1  0  0  0  0
 17 19  0  0  0  0  0
 19 20  1  0  0  0  0
 19 21  0  0  0  0  0
 21 22  1  0  0  0  0
 21 23  0  0  0  0  0
 23 24  1  0  0  0  0
 23 25  1  0  0  0  0
 26 27  1  0  0  0  0
 26 28  1  0  0  0  0
 26 29  1  0  0  0  0
 29 30  1  0  0  0  0
 29 31  1  0  0  0  0
 31 32  0  0  0  0  0
 31 40  0  0  0  0  0
 32 33  1  0  0  0  0
 32 34  0  0  0  0  0
 34 35  1  0  0  0  0
 34 36  0  0  0  0  0
 36 37  1  0  0  0  0
 36 38  0  0  0  0  0
 38 39  1  0  0  0  0
 38 40  0  0  0  0  0
 40 41  1  0  0  0  0
M  END

$$$$
