
  corina  12080917083D 1   1.00000     0.00000 
CORINA 3.46 0026  05.08.2008
 37 40  0  0  0  0  0  0  0  0999 V2000
   -0.4858    0.8845    1.0733 N   0  0  3  0  0  0  0  0  0  0  0  0
   -0.6495   -0.2126    1.8387 C   0  0  0  0  0  0  0  0  0  0  0  0
   -1.8891   -0.6204    2.1757 N   0  0  3  0  0  0  0  0  0  0  0  0
    0.3208   -0.8343    2.2251 O   0  0  0  0  0  0  0  0  0  0  0  0
   -2.0442   -1.6446    3.0159 C   0  0  0  0  0  0  0  0  0  0  0  0
   -3.4323   -2.1149    3.3963 C   0  0  0  0  0  0  0  0  0  0  0  0
   -3.0630    0.0712    1.6189 C   0  0  0  0  0  0  0  0  0  0  0  0
   -4.0596   -2.8074    2.1840 C   0  0  0  0  0  0  0  0  0  0  0  0
   -3.7333   -0.8480    0.5960 C   0  0  0  0  0  0  0  0  0  0  0  0
   -4.7118   -1.7923    1.2630 C   0  0  0  0  0  0  0  0  0  0  0  0
   -1.0704   -2.2012    3.4762 O   0  0  0  0  0  0  0  0  0  0  0  0
   -4.1054    6.6776    1.5085 C   0  0  0  0  0  0  0  0  0  0  0  0
   -4.2604    5.3115    1.7042 C   0  0  0  0  0  0  0  0  0  0  0  0
   -3.1479    4.5005    1.8138 C   0  0  0  0  0  0  0  0  0  0  0  0
   -1.8807    5.0474    1.7289 C   0  0  0  0  0  0  0  0  0  0  0  0
   -1.7230    6.4073    1.5340 C   0  0  0  0  0  0  0  0  0  0  0  0
   -2.8315    7.2237    1.4236 C   0  0  0  0  0  0  0  0  0  0  0  0
   -5.2306    7.5012    1.3913 N   0  0  0  0  0  0  0  0  0  0  0  0
   -0.6689    4.1596    1.8494 C   0  0  0  0  0  0  0  0  0  0  0  0
   -0.2664    3.6549    0.4623 C   0  0  0  0  0  0  0  0  0  0  0  0
    0.9454    2.7672    0.5828 C   0  0  0  0  0  0  0  0  0  0  0  0
    0.7928    1.4199    0.8822 C   0  0  0  0  0  0  0  0  0  0  0  0
    1.9121    0.6049    0.9919 C   0  0  0  0  0  0  0  0  0  0  0  0
    3.1726    1.1364    0.8032 C   0  0  0  0  0  0  0  0  0  0  0  0
    3.3211    2.4788    0.5051 C   0  0  0  0  0  0  0  0  0  0  0  0
    2.2086    3.2916    0.3900 C   0  0  0  0  0  0  0  0  0  0  0  0
   -5.1533    8.8012    1.7383 C   0  0  0  0  0  0  0  0  0  0  0  0
   -6.2708    9.5529    1.7885 N   0  0  3  0  0  0  0  0  0  0  0  0
   -4.0757    9.2956    2.0060 O   0  0  0  0  0  0  0  0  0  0  0  0
   -6.1765   10.8673    1.9944 C   0  0  0  0  0  0  0  0  0  0  0  0
   -7.4260   11.7203    2.0588 C   0  0  0  0  0  0  0  0  0  0  0  0
   -7.5872    8.9190    1.6097 C   0  0  0  0  0  0  0  0  0  0  0  0
   -8.1609   11.4072    3.3644 C   0  0  0  0  0  0  0  0  0  0  0  0
   -8.3063    8.8948    2.9598 C   0  0  0  0  0  0  0  0  0  0  0  0
   -9.0591   10.1948    3.1982 C   0  0  0  0  0  0  0  0  0  0  0  0
   -5.0868   11.3808    2.1309 O   0  0  0  0  0  0  0  0  0  0  0  0
   -1.2539    1.3007    0.6516 H   0  0  0  0  0  0  0  0  0  0  0  0
  3  5  1  0  0  0  0
 15 19  1  0  0  0  0
  8 10  1  0  0  0  0
 19 20  1  0  0  0  0
  9 10  1  0  0  0  0
 20 21  1  0  0  0  0
  2  3  1  0  0  0  0
 21 22  2  0  0  0  0
  5 11  2  0  0  0  0
 22 23  1  0  0  0  0
  5  6  1  0  0  0  0
 23 24  2  0  0  0  0
  1  2  1  0  0  0  0
 24 25  1  0  0  0  0
 12 13  2  0  0  0  0
 25 26  2  0  0  0  0
 26 21  1  0  0  0  0
  3  7  1  0  0  0  0
 18 27  1  0  0  0  0
 13 14  1  0  0  0  0
 27 28  1  0  0  0  0
  2  4  2  0  0  0  0
 27 29  2  0  0  0  0
 14 15  2  0  0  0  0
 28 30  1  0  0  0  0
  6  8  1  0  0  0  0
 30 31  1  0  0  0  0
 15 16  1  0  0  0  0
 28 32  1  0  0  0  0
 31 33  1  0  0  0  0
 16 17  2  0  0  0  0
 32 34  1  0  0  0  0
 17 12  1  0  0  0  0
 33 35  1  0  0  0  0
 34 35  1  0  0  0  0
 12 18  1  0  0  0  0
 30 36  2  0  0  0  0
 22  1  1  0  0  0  0
  7  9  1  0  0  0  0
  1 37  1  0  0  0  0
M  END
$$$$
