m587.mol
  corina  12080917093D 1   1.00000     0.00000 
CORINA 3.46 0026  05.08.2008
 18 20  0  0  0  0  0  0  0  0999 V2000
   -0.0170    1.4059    0.0098 C   0  0  0  0  0  0  0  0  0  0  0  0
    0.0021   -0.0041    0.0020 C   0  0  0  0  0  0  0  0  0  0  0  0
    1.1590    2.0888    0.0022 C   0  0  0  0  0  0  0  0  0  0  0  0
    1.2031   -0.6655   -0.0130 N   0  0  0  0  0  0  0  0  0  0  0  0
    2.3741    1.3828   -0.0132 C   0  0  0  0  0  0  0  0  0  0  0  0
    2.3769    0.0326   -0.0205 C   0  0  0  0  0  0  0  0  0  0  0  0
   -0.9690   -0.9054    0.0064 N   0  0  0  0  0  0  0  0  0  0  0  0
   -0.4282   -2.1339   -0.0053 C   0  0  0  0  0  0  0  0  0  0  0  0
    0.9278   -2.0042   -0.0176 C   0  0  0  0  0  0  0  0  0  0  0  0
   -1.1789   -3.4141   -0.0041 C   0  0  0  0  0  0  0  0  0  0  0  0
   -2.5723   -3.4071    0.0098 C   0  0  0  0  0  0  0  0  0  0  0  0
   -0.4928   -4.6265   -0.0225 C   0  0  0  0  0  0  0  0  0  0  0  0
   -3.2663   -4.6010    0.0051 C   0  0  0  0  0  0  0  0  0  0  0  0
   -1.1950   -5.8149   -0.0271 C   0  0  0  0  0  0  0  0  0  0  0  0
   -2.5788   -5.8039   -0.0128 C   0  0  0  0  0  0  0  0  0  0  0  0
   -3.4560   -7.3020   -0.0175 Cl  0  0  0  0  0  0  0  0  0  0  0  0
   -5.0022   -4.5947    0.0223 Cl  0  0  0  0  0  0  0  0  0  0  0  0
    4.0120    2.3277   -0.0237 Br  0  0  0  0  0  0  0  0  0  0  0  0
  1  2  1  0  0  0  0
  1  3  2  0  0  0  0
  2  4  1  0  0  0  0
  3  5  1  0  0  0  0
  4  6  1  0  0  0  0
  5  6  2  0  0  0  0
  2  7  2  0  0  0  0
  7  8  1  0  0  0  0
  8  9  2  0  0  0  0
  4  9  1  0  0  0  0
 10 11  1  0  0  0  0
 10 12  2  0  0  0  0
 11 13  2  0  0  0  0
 12 14  1  0  0  0  0
 13 15  1  0  0  0  0
 14 15  2  0  0  0  0
  8 10  1  0  0  0  0
 15 16  1  0  0  0  0
 13 17  1  0  0  0  0
  5 18  1  0  0  0  0
M  END
$$$$
