C23O5
  corina  11241012033D 1   1.00000     0.00000 
CORINA 3.46 0026  05.08.2008
 28 29  0  0  0  0  0  0  0  0999 V2000
    0.7053   -0.8772   -1.5134 O   0  0  0  0  0  0  0  0  0  0  0  0
   -0.5436   -1.0683   -1.0187 C   0  0  0  0  0  0  0  0  0  0  0  0
   -0.7250   -1.7936    0.1442 C   0  0  0  0  0  0  0  0  0  0  0  0
   -2.0029   -1.9900    0.6526 C   0  0  0  0  0  0  0  0  0  0  0  0
   -2.1724   -2.7029    1.7950 O   0  0  0  0  0  0  0  0  0  0  0  0
   -0.9948   -3.2195    2.4181 C   0  0  0  0  0  0  0  0  0  0  0  0
   -3.1077   -1.4604   -0.0013 C   0  0  0  0  0  0  0  0  0  0  0  0
   -2.9436   -0.7328   -1.1659 C   0  0  0  0  0  0  0  0  0  0  0  0
   -4.0243   -0.2166   -1.8035 O   0  0  0  0  0  0  0  0  0  0  0  0
   -5.3033   -0.4633   -1.2159 C   0  0  0  0  0  0  0  0  0  0  0  0
   -1.6550   -0.5248   -1.6833 C   0  0  0  0  0  0  0  0  0  0  0  0
   -1.4711    0.2483   -2.9220 C   0  0  0  0  0  0  0  0  0  0  0  0
   -1.3766    1.7069   -2.8665 C   0  0  0  0  0  0  0  0  0  0  0  0
   -1.3104    2.4234   -4.0097 C   0  0  0  0  0  0  0  0  0  0  0  0
   -1.2154    3.8888   -3.9540 C   0  0  0  0  0  0  0  0  0  0  0  0
   -1.1467    4.6336   -5.1372 C   0  0  0  0  0  0  0  0  0  0  0  0
   -1.0583    6.0063   -5.0795 C   0  0  0  0  0  0  0  0  0  0  0  0
   -0.9847    6.8095   -6.3524 C   0  0  0  0  0  0  0  0  0  0  0  0
    0.4578    7.0898   -6.6868 C   0  0  0  0  0  0  0  0  0  0  0  0
    0.9537    6.6925   -7.8324 C   0  0  0  0  0  0  0  0  0  0  0  0
    0.1213    5.8465   -8.7610 C   0  0  0  0  0  0  0  0  0  0  0  0
    2.3567    7.0813   -8.2215 C   0  0  0  0  0  0  0  0  0  0  0  0
   -1.0373    6.6527   -3.8490 C   0  0  0  0  0  0  0  0  0  0  0  0
   -0.9505    8.0063   -3.7975 O   0  0  0  0  0  0  0  0  0  0  0  0
   -0.9336    8.6065   -2.5008 C   0  0  0  0  0  0  0  0  0  0  0  0
   -1.1054    5.9176   -2.6706 C   0  0  0  0  0  0  0  0  0  0  0  0
   -1.1993    4.5452   -2.7173 C   0  0  0  0  0  0  0  0  0  0  0  0
   -1.3976   -0.3267   -3.9937 O   0  0  0  0  0  0  0  0  0  0  0  0
  1  2  1  0  0  0  0
  2  3  2  0  0  0  0
  3  4  1  0  0  0  0
  4  5  1  0  0  0  0
  5  6  1  0  0  0  0
  4  7  2  0  0  0  0
  7  8  1  0  0  0  0
  8  9  1  0  0  0  0
  9 10  1  0  0  0  0
  8 11  2  0  0  0  0
  2 11  1  0  0  0  0
 11 12  1  0  0  0  0
 12 13  1  0  0  0  0
 13 14  2  0  0  0  0
 14 15  1  0  0  0  0
 15 16  2  0  0  0  0
 16 17  1  0  0  0  0
 17 18  1  0  0  0  0
 18 19  1  0  0  0  0
 19 20  2  0  0  0  0
 20 21  1  0  0  0  0
 20 22  1  0  0  0  0
 17 23  2  0  0  0  0
 23 24  1  0  0  0  0
 24 25  1  0  0  0  0
 23 26  1  0  0  0  0
 26 27  2  0  0  0  0
 15 27  1  0  0  0  0
 12 28  2  0  0  0  0
M  END

$$$$
