Untitled Document-1
  corina  03141014453D 1   1.00000     0.00000 
CORINA 3.46 0026  05.08.2008
 45 47  0  0  0  0  0  0  0  0999 V2000
    0.0297    1.3703    0.0993 C   0  0  0  0  0  0  0  0  0  0  0  0
    0.0565   -0.1358    0.0540 C   0  0  0  0  0  0  0  0  0  0  0  0
   10.0568    2.6302   -2.3466 C   0  0  0  0  0  0  0  0  0  0  0  0
    9.4771    3.3057   -3.4209 C   0  0  0  0  0  0  0  0  0  0  0  0
   10.2554    3.7104   -4.4932 C   0  0  0  0  0  0  0  0  0  0  0  0
   11.4154    2.3584   -2.3443 C   0  0  0  0  0  0  0  0  0  0  0  0
   12.2078    2.7611   -3.4163 C   0  0  0  0  0  0  0  0  0  0  0  0
   11.6221    3.4434   -4.5017 C   0  0  0  0  0  0  0  0  0  0  0  0
   12.4541    3.8733   -5.6429 C   0  0  0  0  0  0  0  0  0  0  0  0
   13.6560    2.4744   -3.4160 C   0  0  0  0  0  0  0  0  0  0  0  0
   12.1288    3.4942   -6.8943 O   0  0  0  0  0  0  0  0  0  0  0  0
   14.2356    1.9347   -2.3259 O   0  0  0  0  0  0  0  0  0  0  0  0
   15.6633    1.6797   -2.3966 C   0  0  0  0  0  0  0  0  0  0  0  0
   12.9919    3.9539   -7.9676 C   0  0  0  0  0  0  0  0  0  0  0  0
   13.4319    4.5688   -5.4538 O   0  0  0  0  0  0  0  0  0  0  0  0
   14.3251    2.7250   -4.3985 O   0  0  0  0  0  0  0  0  0  0  0  0
    8.5973    0.6144    0.3491 C   0  0  0  0  0  0  0  0  0  0  0  0
    9.1820    0.8405   -1.0467 C   0  0  0  0  0  0  0  0  0  0  0  0
    9.2870    2.2431   -1.2973 O   0  0  0  0  0  0  0  0  0  0  0  0
    8.1447    3.5686   -3.4153 O   0  0  0  0  0  0  0  0  0  0  0  0
    7.7292    4.8187   -3.9697 C   0  0  0  0  0  0  0  0  0  0  0  0
    6.5584    5.3736   -3.1560 C   0  0  0  0  0  0  0  0  0  0  0  0
    5.3344    5.1173   -3.8474 O   0  0  0  0  0  0  0  0  0  0  0  0
    4.1903    5.7318   -3.2510 C   0  0  0  0  0  0  0  0  0  0  0  0
    3.0533    4.7121   -3.1597 C   0  0  0  0  0  0  0  0  0  0  0  0
    2.6796    4.5365   -1.7917 O   0  0  0  0  0  0  0  0  0  0  0  0
    1.5720    3.6542   -1.6003 C   0  0  0  0  0  0  0  0  0  0  0  0
    1.4207    3.3410   -0.1104 C   0  0  0  0  0  0  0  0  0  0  0  0
    5.1893   -0.6050    1.2360 C   0  0  0  0  0  0  0  0  0  0  0  0
    6.6362   -0.1718    1.4806 C   0  0  0  0  0  0  0  0  0  0  0  0
    7.2759    0.0829    0.2324 O   0  0  0  0  0  0  0  0  0  0  0  0
    1.4055    1.8852    0.0850 N   0  0  0  0  0  0  0  0  0  0  0  0
    4.3200    0.5152    1.4137 O   0  0  0  0  0  0  0  0  0  0  0  0
    2.1202    1.5111    1.3127 C   0  0  0  0  0  0  0  0  0  0  0  0
    2.9612    0.2598    1.0523 C   0  0  0  0  0  0  0  0  0  0  0  0
    0.1417   -0.9023   -1.0390 N   0  0  0  0  0  0  0  0  0  0  0  0
    0.1373   -2.1382   -0.6822 N   0  0  0  0  0  0  0  0  0  0  0  0
    0.0531   -2.2302    0.5989 N   0  0  0  0  0  0  0  0  0  0  0  0
    0.0050   -0.9788    1.1116 C   0  0  0  0  0  0  0  0  0  0  0  0
    0.0205   -3.4755    1.3698 C   0  0  0  0  0  0  0  0  0  0  0  0
   -1.1159   -4.3628    0.8576 C   0  0  0  0  0  0  0  0  0  0  0  0
   -1.1499   -5.6634    1.6626 C   0  0  0  0  0  0  0  0  0  0  0  0
   -2.2692   -6.5373    1.1581 C   0  0  0  0  0  0  0  0  0  0  0  0
   -2.4898   -7.7363    1.7198 O   0  0  0  0  0  0  0  0  0  0  0  0
   -2.9679   -6.1588    0.2480 O   0  0  0  0  0  0  0  0  0  0  0  0
  1  2  1  0      
  3  4  1  0      
  4  5  2  0      
  3  6  2  0      
  5  8  1  0      
  6  7  1  0      
  7  8  2  0      
  8  9  1  0      
  7 10  1  0      
  9 11  1  0      
 10 12  1  0      
 12 13  1  0      
 11 14  1  0      
  9 15  2  0      
 10 16  2  0      
 17 18  1  0      
 18 19  1  0      
  4 20  1  0      
 20 21  1  0      
 19  3  1  0      
 22 23  1  0      
 23 24  1  0      
 24 25  1  0      
 21 22  1  0      
 26 27  1  0      
 27 28  1  0      
 25 26  1  0      
 29 30  1  0      
 30 31  1  0      
 17 31  1  0      
 28 32  1  0      
 33 29  1  0      
 32 34  1  0      
 33 35  1  0      
 34 35  1  0      
 32  1  1  0      
  2 36  1  0      
 36 37  2  0      
 37 38  1  0      
 38 39  1  0      
 39  2  2  0      
 38 40  1  0      
 40 41  1  0      
 41 42  1  0      
 42 43  1  0      
 43 44  1  0      
 43 45  2  0      
M  END
$$$$
