m493.mol
  corina  12080917093D 1   1.00000     0.00000 
CORINA 3.46 0026  05.08.2008
 23 24  0  0  0  0  0  0  0  0999 V2000
   -0.2801    0.8184   -0.8634 C   0  0  0  0  0  0  0  0  0  0  0  0
   -0.0976   -0.5515   -0.8913 C   0  0  0  0  0  0  0  0  0  0  0  0
    1.1620   -1.0852   -0.6932 C   0  0  0  0  0  0  0  0  0  0  0  0
    2.2393   -0.2489   -0.4675 C   0  0  0  0  0  0  0  0  0  0  0  0
    2.0570    1.1211   -0.4405 C   0  0  0  0  0  0  0  0  0  0  0  0
    0.7971    1.6548   -0.6372 C   0  0  0  0  0  0  0  0  0  0  0  0
    3.2314    2.0328   -0.1939 C   0  0  0  0  0  0  0  0  0  0  0  0
    3.8533    2.3880   -1.4766 N   0  0  0  0  0  0  0  0  0  0  0  0
    4.8469    3.4558   -1.3021 C   0  0  0  0  0  0  0  0  0  0  0  0
    4.4540    1.2090   -2.1146 C   0  0  0  0  0  0  0  0  0  0  0  0
    4.7668    1.5252   -3.5786 C   0  0  0  0  0  0  0  0  0  0  0  0
    5.2549    0.3095   -4.2497 C   0  0  0  0  0  0  0  0  0  0  0  0
    5.6317   -0.6288   -4.7676 N   0  0  0  0  0  0  0  0  0  0  0  0
    4.1599    4.7349   -1.1069 N   0  0  0  0  0  0  0  0  0  0  0  0
    3.8956    5.2601    0.0353 N   0  0  0  0  0  0  0  0  0  0  0  0
    3.2729    6.4107   -0.1291 C   0  0  0  0  0  0  0  0  0  0  0  0
    3.1410    6.6130   -1.5238 C   0  0  0  0  0  0  0  0  0  0  0  0
    3.7187    5.5342   -2.1020 C   0  0  0  0  0  0  0  0  0  0  0  0
    3.8399    5.2704   -3.5808 C   0  0  0  0  0  0  0  0  0  0  0  0
    2.8028    7.3153    0.9381 C   0  0  0  0  0  0  0  0  0  0  0  0
    2.2388    8.3523    0.6506 O   0  0  0  0  0  0  0  0  0  0  0  0
    2.9992    6.9912    2.2310 O   0  0  0  0  0  0  0  0  0  0  0  0
    2.5106    7.9281    3.2269 C   0  0  0  0  0  0  0  0  0  0  0  0
  1  2  2  0  0  0
  2  3  1  0  0  0
  3  4  2  0  0  0
  4  5  1  0  0  0
  5  6  2  0  0  0
  6  1  1  0  0  0
  5  7  1  0  0  0
  7  8  1  0  0  0
  8  9  1  0  0  0
  8 10  1  0  0  0
 10 11  1  0  0  0
 11 12  1  0  0  0
 12 13  3  0  0  0
  9 14  1  0  0  0
 14 15  1  0  0  0
 15 16  2  0  0  0
 16 17  1  0  0  0
 17 18  2  0  0  0
 18 14  1  0  0  0
 18 19  1  0  0  0
 16 20  1  0  0  0
 20 21  2  0  0  0
 20 22  1  0  0  0
 22 23  1  0  0  0
M  END
$$$$
