
  corina  12080917083D 1   1.00000     0.00000 
CORINA 3.46 0026  05.08.2008
 31 34  0  0  0  0  0  0  0  0999 V2000
   -0.0167    1.3773    0.0096 C   0  0  0  0  0  0  0  0  0  0  0  0
    2.3996    0.0122   -0.0159 C   0  0  0  0  0  0  0  0  0  0  0  0
    2.3922    1.4007   -0.0035 C   0  0  0  0  0  0  0  0  0  0  0  0
    1.1766    2.0875    0.0020 C   0  0  0  0  0  0  0  0  0  0  0  0
    2.3352    4.1558    0.2463 C   0  0  0  0  0  0  0  0  0  0  0  0
    1.1469    3.4866   -0.0146 N   0  0  3  0  0  0  0  0  0  0  0  0
    0.3273    3.9705   -0.2017 H   0  0  0  0  0  0  0  0  0  0  0  0
    0.1074    5.4196    1.1196 O   0  0  0  0  0  0  0  0  0  0  0  0
    1.1767    5.9666    1.3245 C   0  0  0  0  0  0  0  0  0  0  0  0
    2.3744    5.3581    0.8934 C   0  0  0  0  0  0  0  0  0  0  0  0
    3.6057    2.0974    0.0195 N   0  0  3  0  0  0  0  0  0  0  0  0
    3.5662    3.4621   -0.2332 C   0  0  0  0  0  0  0  0  0  0  0  0
    4.5779    4.1201   -0.8731 C   0  0  0  0  0  0  0  0  0  0  0  0
    5.7189    3.4110   -1.3043 C   0  0  0  0  0  0  0  0  0  0  0  0
    5.8018    2.2117   -1.1059 O   0  0  0  0  0  0  0  0  0  0  0  0
    4.4429    1.6441    0.2054 H   0  0  0  0  0  0  0  0  0  0  0  0
    0.0021   -0.0041    0.0020 C   0  0  0  0  0  0  0  0  0  0  0  0
    1.2067   -0.6846   -0.0131 C   0  0  0  0  0  0  0  0  0  0  0  0
   -1.2943   -0.7725    0.0107 C   0  0  0  0  0  0  0  0  0  0  0  0
    1.2191    7.2691    2.0256 C   0  0  0  0  0  0  0  0  0  0  0  0
    0.0360    7.8737    2.4534 C   0  0  0  0  0  0  0  0  0  0  0  0
    1.2985    9.7068    3.3371 C   0  0  0  0  0  0  0  0  0  0  0  0
    2.4754    9.1098    2.9210 C   0  0  0  0  0  0  0  0  0  0  0  0
    0.0825    9.0880    3.1064 C   0  0  0  0  0  0  0  0  0  0  0  0
    2.4428    7.8956    2.2670 C   0  0  0  0  0  0  0  0  0  0  0  0
    6.8149    4.1238   -1.9975 C   0  0  0  0  0  0  0  0  0  0  0  0
    7.9450    3.4252   -2.4253 C   0  0  0  0  0  0  0  0  0  0  0  0
    8.8661    5.4578   -3.2943 C   0  0  0  0  0  0  0  0  0  0  0  0
    7.7457    6.1551   -2.8781 C   0  0  0  0  0  0  0  0  0  0  0  0
    8.9632    4.0957   -3.0709 C   0  0  0  0  0  0  0  0  0  0  0  0
    6.7205    5.4966   -2.2314 C   0  0  0  0  0  0  0  0  0  0  0  0
  9 20  1  0  0  0  0
 13 14  1  0  0  0  0
 14 26  1  0  0  0  0
 14 15  2  0  0  0  0
 16 11  1  0  0  0  0
  3  2  2  0  0  0  0
  5  6  1  0  0  0  0
 17 18  2  0  0  0  0
 19 17  1  0  0  0  0
  2 18  1  0  0  0  0
  6  7  1  0  0  0  0
 20 21  2  0  0  0  0
 17  1  1  0  0  0  0
 22 23  1  0  0  0  0
  1  4  2  0  0  0  0
  8  9  2  0  0  0  0
  3  4  1  0  0  0  0
  9 10  1  0  0  0  0
 20 25  1  0  0  0  0
 21 24  1  0  0  0  0
 24 22  2  0  0  0  0
 23 25  2  0  0  0  0
 10  5  2  0  0  0  0
 26 27  2  0  0  0  0
  4  6  1  0  0  0  0
 28 29  1  0  0  0  0
  5 12  1  0  0  0  0
 11 12  1  0  0  0  0
 11  3  1  0  0  0  0
 12 13  2  0  0  0  0
 26 31  1  0  0  0  0
 27 30  1  0  0  0  0
 30 28  2  0  0  0  0
 29 31  2  0  0  0  0
G   20  9
Ph
G   26 14
Ph
M  STY  2   1 SUP   2 SUP
M  SLB  2   1   1   2   2
M  SAL   1  6  20  21  22  23  24  25
M  SBL   1  1   1
M  SMT   1 Ph
M  SBV   1   1   -0.7000    0.4100
M  SAL   2  6  26  27  28  29  30  31
M  SBL   2  1   3
M  SMT   2 Ph
M  SBV   2   3   -0.7000   -0.4100
M  END
$$$$
