molbank-2007-M555-s001-2.mol
  corina  04131423493D 1   1.00000     0.00000 
CORINA 3.49 0023  12.04.2013
 19 21  0  0  0  0  0  0  0  0999 V2000
   -0.0158    1.3169    0.0093 N   0  0  0  0  0  0  0  0  0  0  0  0
    0.0021   -0.0041    0.0020 C   0  0  0  0  0  0  0  0  0  0  0  0
    1.1182   -0.6998   -0.0119 N   0  0  0  0  0  0  0  0  0  0  0  0
    2.3015   -0.0877   -0.0199 C   0  0  0  0  0  0  0  0  0  0  0  0
    2.3310    1.3189   -0.0131 C   0  0  0  0  0  0  0  0  0  0  0  0
    1.1141    2.0177    0.0023 C   0  0  0  0  0  0  0  0  0  0  0  0
    3.5996   -0.5184   -0.0343 N   0  0  0  0  0  0  0  0  0  0  0  0
    4.4508    0.5563   -0.0368 C   0  0  0  0  0  0  0  0  0  0  0  0
    3.7427    1.6975   -0.0244 C   0  0  0  0  0  0  0  0  0  0  0  0
    1.0907    3.4007    0.0090 N   0  0  0  0  0  0  0  0  0  0  0  0
    4.0188   -1.9221   -0.0453 C   0  0  0  0  0  0  0  0  0  0  0  0
    4.1148   -2.4434   -1.4963 C   0  0  0  0  0  0  0  0  0  0  0  0
    5.3423   -3.3814   -1.4779 C   0  0  0  0  0  0  0  0  0  0  0  0
    5.8429   -3.3160   -0.0179 C   0  0  0  0  0  0  0  0  0  0  0  0
    5.3570   -2.0513    0.4824 O   0  0  0  0  0  0  0  0  0  0  0  0
    7.3719   -3.3531    0.0232 C   0  0  0  0  0  0  0  0  0  0  0  0
    7.8125   -3.3347    1.3824 O   0  0  0  0  0  0  0  0  0  0  0  0
    4.9581   -4.7156   -1.8161 O   0  0  0  0  0  0  0  0  0  0  0  0
    2.9349   -3.1695   -1.8465 O   0  0  0  0  0  0  0  0  0  0  0  0
  1  2  1  0      
  2  3  2  0      
  3  4  1  0      
  4  5  2  0      
  5  6  1  0      
  6  1  2  0      
  4  7  1  0      
  7  8  1  0      
  8  9  2  0      
  9  5  1  0      
  6 10  1  0      
  7 11  1  0      
 14 15  1  0      
 11 15  1  0      
 14 16  1  0      
 16 17  1  0      
 13 18  1  0      
 12 19  1  0      
 14 13  1  0      
 11 12  1  0      
 13 12  1  0      
M  END
$$$$
