
  Chem3D  03181110473D

 76 80  0  0  0  0  0  0  0  0999 V2000
   -0.6963   -4.2836   -5.7941 C   0  0  0  0  0  0  0  0  0  0  0  0
   -1.8932   -5.2404   -5.6469 C   0  0  0  0  0  0  0  0  0  0  0  0
   -2.5176   -5.2401   -4.2292 C   0  0  1  0  0  0  0  0  0  0  0  0
   -1.3757   -5.6083   -3.2638 C   0  0  0  0  0  0  0  0  0  0  0  0
   -0.2323   -4.6088   -3.3422 C   0  0  2  0  0  0  0  0  0  0  0  0
    0.4108   -4.4799   -4.7304 C   0  0  1  0  0  0  0  0  0  0  0  0
    1.2353   -5.7383   -5.0831 C   0  0  0  0  0  0  0  0  0  0  0  0
   -3.4723   -4.0493   -3.8862 C   0  0  2  0  0  0  0  0  0  0  0  0
   -4.9166   -4.5710   -3.7706 C   0  0  0  0  0  0  0  0  0  0  0  0
    1.3359   -3.3161   -4.6465 N   0  0  0  0  0  0  0  0  0  0  0  0
    0.7410   -4.8944   -2.3661 O   0  0  0  0  0  0  0  0  0  0  0  0
   -3.5009   -3.1667   -4.9841 O   0  0  0  0  0  0  0  0  0  0  0  0
    2.6650   -3.2690   -4.6513 N   0  0  0  0  0  0  0  0  0  0  0  0
    3.0955   -2.0335   -4.4916 N   0  0  0  0  0  0  0  0  0  0  0  0
    1.9939   -1.2866   -4.3848 C   0  0  0  0  0  0  0  0  0  0  0  0
    0.8498   -2.0654   -4.4785 C   0  0  0  0  0  0  0  0  0  0  0  0
   -3.1791   -3.1425   -2.6678 C   0  0  0  0  0  0  0  0  0  0  0  0
   -2.8516   -3.7756   -1.3818 N   0  0  0  0  0  0  0  0  0  0  0  0
   -1.7324   -3.4059   -0.7184 C   0  0  0  0  0  0  0  0  0  0  0  0
   -1.7004   -4.2843    0.3548 C   0  0  0  0  0  0  0  0  0  0  0  0
   -2.7727   -5.0821    0.3584 N   0  0  0  0  0  0  0  0  0  0  0  0
   -3.4653   -4.7452   -0.7123 N   0  0  0  0  0  0  0  0  0  0  0  0
    2.0536    0.1972   -4.1438 C   0  0  0  0  0  0  0  0  0  0  0  0
    0.7587    0.6832   -3.8837 O   0  0  0  0  0  0  0  0  0  0  0  0
    0.4242    2.0070   -3.7982 C   0  0  0  0  0  0  0  0  0  0  0  0
    1.2844    3.2314   -3.8895 C   0  0  0  0  0  0  0  0  0  0  0  0
   -0.7721    2.2355   -3.6111 O   0  0  0  0  0  0  0  0  0  0  0  0
   -0.5797   -4.4147    1.3478 C   0  0  0  0  0  0  0  0  0  0  0  0
   -0.9935   -5.0135    2.5523 O   0  0  0  0  0  0  0  0  0  0  0  0
   -0.2161   -4.9852    3.6803 C   0  0  0  0  0  0  0  0  0  0  0  0
    1.1734   -4.4426    3.8637 C   0  0  0  0  0  0  0  0  0  0  0  0
   -0.7097   -5.4657    4.7003 O   0  0  0  0  0  0  0  0  0  0  0  0
    0.6482    4.4785   -4.0451 C   0  0  0  0  0  0  0  0  0  0  0  0
    1.3737    5.6679   -4.1245 C   0  0  0  0  0  0  0  0  0  0  0  0
    2.7674    5.6379   -4.0537 C   0  0  0  0  0  0  0  0  0  0  0  0
    3.4203    4.4139   -3.9013 C   0  0  0  0  0  0  0  0  0  0  0  0
    2.6858    3.2278   -3.8172 C   0  0  0  0  0  0  0  0  0  0  0  0
    2.1226   -4.3448    2.8324 C   0  0  0  0  0  0  0  0  0  0  0  0
    3.3966   -3.8280    3.0696 C   0  0  0  0  0  0  0  0  0  0  0  0
    3.7581   -3.4093    4.3542 C   0  0  0  0  0  0  0  0  0  0  0  0
    2.8377   -3.5161    5.3961 C   0  0  0  0  0  0  0  0  0  0  0  0
    1.5601   -4.0275    5.1475 C   0  0  0  0  0  0  0  0  0  0  0  0
    3.7615    7.2413   -4.1522 Br  0  0  0  0  0  0  0  0  0  0  0  0
    5.4877   -2.7217    4.6777 Br  0  0  0  0  0  0  0  0  0  0  0  0
   -0.2538   -4.3734   -6.8139 H   0  0  0  0  0  0  0  0  0  0  0  0
   -1.1020   -3.2506   -5.7444 H   0  0  0  0  0  0  0  0  0  0  0  0
   -2.6651   -5.0279   -6.4225 H   0  0  0  0  0  0  0  0  0  0  0  0
   -1.5401   -6.2713   -5.8895 H   0  0  0  0  0  0  0  0  0  0  0  0
   -3.1754   -6.1499   -4.2144 H   0  0  0  0  0  0  0  0  0  0  0  0
   -1.7456   -5.7374   -2.2270 H   0  0  0  0  0  0  0  0  0  0  0  0
   -0.9758   -6.6175   -3.5189 H   0  0  0  0  0  0  0  0  0  0  0  0
   -0.6360   -3.6150   -3.0694 H   0  0  0  0  0  0  0  0  0  0  0  0
    2.0256   -5.9452   -4.3274 H   0  0  0  0  0  0  0  0  0  0  0  0
    0.6123   -6.6552   -5.1553 H   0  0  0  0  0  0  0  0  0  0  0  0
    1.7472   -5.6160   -6.0645 H   0  0  0  0  0  0  0  0  0  0  0  0
   -5.0344   -5.2639   -2.9080 H   0  0  0  0  0  0  0  0  0  0  0  0
   -5.6495   -3.7432   -3.6364 H   0  0  0  0  0  0  0  0  0  0  0  0
   -5.2287   -5.1131   -4.6929 H   0  0  0  0  0  0  0  0  0  0  0  0
    1.4943   -4.3147   -2.5080 H   0  0  0  0  0  0  0  0  0  0  0  0
   -4.1927   -2.5124   -4.8614 H   0  0  0  0  0  0  0  0  0  0  0  0
   -0.2025   -1.7801   -4.4105 H   0  0  0  0  0  0  0  0  0  0  0  0
   -4.0615   -2.4851   -2.4837 H   0  0  0  0  0  0  0  0  0  0  0  0
   -2.3802   -2.4195   -2.9512 H   0  0  0  0  0  0  0  0  0  0  0  0
   -1.0217   -2.6359   -1.0298 H   0  0  0  0  0  0  0  0  0  0  0  0
    2.4647    0.6883   -5.0544 H   0  0  0  0  0  0  0  0  0  0  0  0
    2.6860    0.3496   -3.2398 H   0  0  0  0  0  0  0  0  0  0  0  0
   -0.1555   -3.4063    1.5540 H   0  0  0  0  0  0  0  0  0  0  0  0
    0.1575   -5.0830    0.8473 H   0  0  0  0  0  0  0  0  0  0  0  0
   -0.4495    4.5548   -4.1107 H   0  0  0  0  0  0  0  0  0  0  0  0
    0.8355    6.6230   -4.2409 H   0  0  0  0  0  0  0  0  0  0  0  0
    4.5194    4.3711   -3.8291 H   0  0  0  0  0  0  0  0  0  0  0  0
    3.2682    2.3143   -3.6585 H   0  0  0  0  0  0  0  0  0  0  0  0
    1.9257   -4.7123    1.8184 H   0  0  0  0  0  0  0  0  0  0  0  0
    4.1202   -3.7756    2.2397 H   0  0  0  0  0  0  0  0  0  0  0  0
    3.1042   -3.2001    6.4177 H   0  0  0  0  0  0  0  0  0  0  0  0
    0.8595   -4.0856    5.9969 H   0  0  0  0  0  0  0  0  0  0  0  0
  1  2  1  0  0  0
  6  1  1  0  0  0
  1 45  1  0  0  0
  1 46  1  0  0  0
  3  2  1  0  0  0
 47  2  1  0  0  0
 48  2  1  0  0  0
  3  4  1  0  0  0
  8  3  1  0  0  0
  3 49  1  0  0  0
  5  4  1  0  0  0
 50  4  1  0  0  0
 51  4  1  0  0  0
  5  6  1  0  0  0
  5 11  1  0  0  0
  5 52  1  0  0  0
  6  7  1  0  0  0
  6 10  1  0  0  0
 53  7  1  0  0  0
 54  7  1  0  0  0
  7 55  1  0  0  0
  8  9  1  0  0  0
  8 12  1  0  0  0
 17  8  1  0  0  0
 56  9  1  0  0  0
  9 57  1  0  0  0
 58  9  1  0  0  0
 10 13  1  0  0  0
 16 10  1  0  0  0
 59 11  1  0  0  0
 60 12  1  0  0  0
 13 14  2  0  0  0
 15 14  1  0  0  0
 15 16  2  0  0  0
 23 15  1  0  0  0
 16 61  1  0  0  0
 17 18  1  0  0  0
 17 62  1  0  0  0
 63 17  1  0  0  0
 18 19  1  0  0  0
 18 22  1  0  0  0
 19 20  2  0  0  0
 64 19  1  0  0  0
 20 21  1  0  0  0
 20 28  1  0  0  0
 21 22  2  0  0  0
 23 24  1  0  0  0
 65 23  1  0  0  0
 23 66  1  0  0  0
 24 25  1  0  0  0
 25 26  1  0  0  0
 25 27  2  0  0  0
 26 33  2  0  0  0
 26 37  1  0  0  0
 28 29  1  0  0  0
 28 67  1  0  0  0
 28 68  1  0  0  0
 30 29  1  0  0  0
 30 31  1  0  0  0
 30 32  2  0  0  0
 31 38  2  0  0  0
 31 42  1  0  0  0
 33 34  1  0  0  0
 69 33  1  0  0  0
 34 35  2  0  0  0
 70 34  1  0  0  0
 36 35  1  0  0  0
 43 35  1  0  0  0
 36 37  2  0  0  0
 71 36  1  0  0  0
 37 72  1  0  0  0
 38 39  1  0  0  0
 73 38  1  0  0  0
 40 39  2  0  0  0
 74 39  1  0  0  0
 40 41  1  0  0  0
 40 44  1  0  0  0
 41 42  2  0  0  0
 75 41  1  0  0  0
 76 42  1  0  0  0
M  END

