
  corina  12080917083D 1   1.00000     0.00000 
CORINA 3.46 0026  05.08.2008
 18 19  0  0  0  0  0  0  0  0999 V2000
   -0.0158    1.3152    0.0093 C   0  0  0  0  0  0  0  0  0  0  0  0
    1.2004    2.0143    0.0014 C   0  0  0  0  0  0  0  0  0  0  0  0
    2.3384    1.3146   -0.0132 N   0  0  0  0  0  0  0  0  0  0  0  0
    2.2847   -0.0103   -0.0198 C   0  0  0  0  0  0  0  0  0  0  0  0
    1.1178   -0.6447   -0.0116 N   0  0  0  0  0  0  0  0  0  0  0  0
    0.0021   -0.0041    0.0020 N   0  0  0  0  0  0  0  0  0  0  0  0
    3.7806   -0.9413   -0.0385 S   0  0  0  0  0  0  0  0  0  0  0  0
    3.1057   -2.6207   -0.0399 C   0  0  0  0  0  0  0  0  0  0  0  0
    1.2221    3.4861    0.0086 C   0  0  0  0  0  0  0  0  0  0  0  0
    0.1063    4.1525    0.0229 N   0  0  0  0  0  0  0  0  0  0  0  0
    2.5382    4.2202   -0.0005 C   0  0  0  0  0  0  0  0  0  0  0  0
    0.1271    5.5533    0.0297 N   0  0  0  0  0  0  0  0  0  0  0  0
   -1.0710    6.2688    0.0450 C   0  0  0  0  0  0  0  0  0  0  0  0
   -1.0524    7.6585    0.0519 C   0  0  0  0  0  0  0  0  0  0  0  0
   -2.2399    8.3631    0.0665 C   0  0  0  0  0  0  0  0  0  0  0  0
   -3.4467    7.6876    0.0748 C   0  0  0  0  0  0  0  0  0  0  0  0
   -3.4691    6.3048    0.0685 C   0  0  0  0  0  0  0  0  0  0  0  0
   -2.2857    5.5935    0.0476 C   0  0  0  0  0  0  0  0  0  0  0  0
  2  9  1  0  0  0  0
  4  5  1  0  0  0  0
  9 10  2  0  0  0  0
  2  3  1  0  0  0  0
  9 11  1  0  0  0  0
  5  6  2  0  0  0  0
 10 12  1  0  0  0  0
  6  1  1  0  0  0  0
 12 13  1  0  0  0  0
  1  2  2  0  0  0  0
 13 14  2  0  0  0  0
  4  7  1  0  0  0  0
 14 15  1  0  0  0  0
  3  4  2  0  0  0  0
 15 16  2  0  0  0  0
  7  8  1  0  0  0  0
 16 17  1  0  0  0  0
 17 18  2  0  0  0  0
 18 13  1  0  0  0  0
M  END
$$$$
