
  corina  12080917093D 1   1.00000     0.00000 
CORINA 3.46 0026  05.08.2008
 34 35  0  0  0  0  0  0  0  0  2 V2000
    1.6523   -1.3535   -4.2184 N   0  3  0  0  0  0  0  0  0  0  0  0
   -4.4336   -3.5451   -2.8756 O   0  0  0  0  0  0  0  0  0  0  0  0
   -2.2563   -2.9679   -1.7980 N   0  0  0  0  0  0  0  0  0  0  0  0
   -2.5161   -3.7849   -0.8147 C   0  0  0  0  0  0  0  0  0  0  0  0
   -3.7718   -4.5467   -0.8050 C   0  0  0  0  0  0  0  0  0  0  0  0
   -4.6953   -4.3980   -1.8530 C   0  0  0  0  0  0  0  0  0  0  0  0
   -4.0511   -5.4283    0.2452 C   0  0  0  0  0  0  0  0  0  0  0  0
   -5.8731   -5.1240   -1.8384 C   0  0  0  0  0  0  0  0  0  0  0  0
   -5.2266   -6.1442    0.2469 C   0  0  0  0  0  0  0  0  0  0  0  0
   -6.1394   -5.9952   -0.7918 C   0  0  0  0  0  0  0  0  0  0  0  0
    0.5377   -0.9086   -0.6613 C   0  0  0  0  0  0  0  0  0  0  0  0
    1.2823   -0.8228   -1.8247 C   0  0  0  0  0  0  0  0  0  0  0  0
   -0.6426   -1.6218   -0.6452 C   0  0  0  0  0  0  0  0  0  0  0  0
    0.8492   -1.4508   -2.9789 C   0  0  0  0  0  0  0  0  0  0  0  0
   -1.0862   -2.2581   -1.8069 C   0  0  0  0  0  0  0  0  0  0  0  0
   -0.3298   -2.1673   -2.9773 C   0  0  0  0  0  0  0  0  0  0  0  0
   -7.2969   -6.7054   -0.7815 O   0  0  0  0  0  0  0  0  0  0  0  0
   -8.7346   -8.4097   -1.8427 C   0  0  0  0  0  0  0  0  0  0  0  0
   -6.5023   -7.9409   -2.4332 O   0  0  0  0  0  0  0  0  0  0  0  0
   -7.4294   -7.6685   -1.7078 C   0  0  0  0  0  0  0  0  0  0  0  0
   -8.6195   -9.4456   -2.9628 C   0  0  0  0  0  0  0  0  0  0  0  0
   -9.9446  -10.1982   -3.0997 C   0  0  0  0  0  0  0  0  0  0  0  0
   -9.8294  -11.2341   -4.2198 C   0  0  0  0  0  0  0  0  0  0  0  0
  -11.1545  -11.9866   -4.3567 C   0  0  0  0  0  0  0  0  0  0  0  0
  -11.0394  -13.0225   -5.4767 C   0  0  0  0  0  0  0  0  0  0  0  0
  -12.3645  -13.7750   -5.6137 C   0  0  0  0  0  0  0  0  0  0  0  0
  -12.2493  -14.8109   -6.7337 C   0  0  0  0  0  0  0  0  0  0  0  0
  -13.5744  -15.5634   -6.8707 C   0  0  0  0  0  0  0  0  0  0  0  0
  -13.4593  -16.5993   -7.9907 C   0  0  0  0  0  0  0  0  0  0  0  0
  -14.7844  -17.3518   -8.1276 C   0  0  0  0  0  0  0  0  0  0  0  0
  -14.6692  -18.3877   -9.2477 C   0  0  0  0  0  0  0  0  0  0  0  0
  -15.9943  -19.1402   -9.3846 C   0  0  0  0  0  0  0  0  0  0  0  0
    2.6932   -0.7210   -4.2214 O   0  5  0  0  0  0  0  0  0  0  0  0
    1.2749   -1.9100   -5.2339 O   0  0  0  0  0  0  0  0  0  0  0  0
  6  5  1  0  0  0  0
  7  5  2  0  0  0  0
  8  6  2  0  0  0  0
  9  7  1  0  0  0  0
 10  8  1  0  0  0  0
 10  9  2  0  0  0  0
  4  5  1  0  0  0  0
  3  4  2  0  0  0  0
  2  6  1  0  0  0  0
 12 11  1  0  0  0  0
 13 11  2  0  0  0  0
 14 12  2  0  0  0  0
 15 13  1  0  0  0  0
 16 14  1  0  0  0  0
 16 15  2  0  0  0  0
  3 15  1  0  0  0  0
  1 14  1  0  0  0  0
 19 20  2  0  0  0  0
 18 20  1  0  0  0  0
 17 20  1  0  0  0  0
 21 18  1  0  0  0  0
 22 21  1  0  0  0  0
 23 22  1  0  0  0  0
 24 23  1  0  0  0  0
 25 24  1  0  0  0  0
 26 25  1  0  0  0  0
 27 26  1  0  0  0  0
 28 27  1  0  0  0  0
 29 28  1  0  0  0  0
 30 29  1  0  0  0  0
 31 30  1  0  0  0  0
 32 31  1  0  0  0  0
 10 17  1  0  0  0  0
 33  1  1  0  0  0  0
 34  1  2  0  0  0  0
M  CHG  2   1   1  33  -1
M  END
$$$$
