m386.cdx
  corina  12080917083D 1   1.00000     0.00000 
CORINA 3.46 0026  05.08.2008
 16 19  0  0  0  0  0  0  0  0999 V2000
   -0.0168    1.3898    0.0097 C   0  0  0  0  0  0  0  0  0  0  0  0
    0.0021   -0.0041    0.0020 C   0  0  0  0  0  0  0  0  0  0  0  0
    1.1596   -0.7332   -0.0123 C   0  0  0  0  0  0  0  0  0  0  0  0
    2.3904   -0.0549   -0.0199 C   0  0  0  0  0  0  0  0  0  0  0  0
    2.3543    1.3421   -0.0134 C   0  0  0  0  0  0  0  0  0  0  0  0
    1.1748    2.0952    0.0021 C   0  0  0  0  0  0  0  0  0  0  0  0
    3.6546   -0.6686   -0.0330 C   0  0  0  0  0  0  0  0  0  0  0  0
    4.7729    0.1194   -0.0405 C   0  0  0  0  0  0  0  0  0  0  0  0
    4.7198    1.5124   -0.0348 C   0  0  0  0  0  0  0  0  0  0  0  0
    3.4933    2.1552   -0.0215 C   0  0  0  0  0  0  0  0  0  0  0  0
    0.9080    4.6501    0.0203 N   0  0  0  0  0  0  0  0  0  0  0  0
    1.5888    3.5111    0.0051 C   0  0  0  0  0  0  0  0  0  0  0  0
    3.0069    3.5478   -0.0120 C   0  0  0  0  0  0  0  0  0  0  0  0
    3.6278    4.7206   -0.0155 N   0  0  0  0  0  0  0  0  0  0  0  0
    2.9313    5.8412   -0.0015 C   0  0  0  0  0  0  0  0  0  0  0  0
    1.5457    5.8053    0.0174 C   0  0  0  0  0  0  0  0  0  0  0  0
  1  2  2  0  0  0
  2  3  1  0  0  0
  3  4  2  0  0  0
  4  5  1  0  0  0
  5  6  2  0  0  0
  6  1  1  0  0  0
  4  7  1  0  0  0
  7  8  2  0  0  0
  8  9  1  0  0  0
  9 10  2  0  0  0
 10  5  1  0  0  0
 11 12  1  0  0  0
 12 13  2  0  0  0
 13 14  1  0  0  0
 14 15  2  0  0  0
 15 16  1  0  0  0
 16 11  2  0  0  0
 12  6  1  0  0  0
 13 10  1  0  0  0
M  END
$$$$
