m531.cdx
  corina  12080917093D 1   1.00000     0.00000 
CORINA 3.46 0026  05.08.2008
 21 22  0  0  0  0  0  0  0  0999 V2000
   -0.0008    1.3061    0.2463 C   0  0  0  0  0  0  0  0  0  0  0  0
   -0.2358   -0.0394    0.2268 C   0  0  0  0  0  0  0  0  0  0  0  0
    0.8631   -0.8965    0.0024 C   0  0  0  0  0  0  0  0  0  0  0  0
    2.0868   -0.3651   -0.1818 N   0  0  0  0  0  0  0  0  0  0  0  0
    2.2808    0.9038   -0.1584 N   0  0  0  0  0  0  0  0  0  0  0  0
    1.3143    1.7559    0.0429 C   0  0  0  0  0  0  0  0  0  0  0  0
    0.7060   -2.1067   -0.0239 O   0  0  0  0  0  0  0  0  0  0  0  0
    1.6105    3.2334    0.0579 C   0  0  0  0  0  0  0  0  0  0  0  0
   -1.1250    2.2835    0.4740 C   0  0  0  0  0  0  0  0  0  0  0  0
   -1.6641    2.7476   -0.8546 C   0  0  0  0  0  0  0  0  0  0  0  0
    3.2252   -1.2573   -0.4145 C   0  0  0  0  0  0  0  0  0  0  0  0
    3.3780   -1.5015   -1.8937 C   0  0  0  0  0  0  0  0  0  0  0  0
    2.6114   -0.9814   -2.6765 O   0  0  0  0  0  0  0  0  0  0  0  0
    4.3664   -2.2979   -2.3467 N   0  0  0  0  0  0  0  0  0  0  0  0
    4.5049   -2.5192   -3.6875 N   0  0  0  0  0  0  0  0  0  0  0  0
   -2.6070    1.9870   -1.5224 C   0  0  0  0  0  0  0  0  0  0  0  0
   -3.1018    2.4140   -2.7420 C   0  0  0  0  0  0  0  0  0  0  0  0
   -2.6538    3.5999   -3.2922 C   0  0  0  0  0  0  0  0  0  0  0  0
   -1.7113    4.3597   -2.6243 C   0  0  0  0  0  0  0  0  0  0  0  0
   -1.2206    3.9363   -1.4034 C   0  0  0  0  0  0  0  0  0  0  0  0
   -3.1689    0.4971   -0.8309 Cl  0  0  0  0  0  0  0  0  0  0  0  0
  1  2  2  0      
  2  3  1  0      
  3  4  1  0      
  4  5  1  0      
  5  6  2  0      
  6  1  1  0      
  3  7  2  0      
  6  8  1  0      
  1  9  1  0      
  9 10  1  0      
  4 11  1  0      
 11 12  1  0      
 12 13  2  0      
 12 14  1  0      
 14 15  1  0      
 10 16  2  0      
 16 17  1  0      
 17 18  2  0      
 18 19  1  0      
 19 20  2  0      
 20 10  1  0      
 16 21  1  0      
M  END
$$$$
