Ethyl 3-chloropyrazine-2-carboxylate
  corina  12080917083D 1   1.00000     0.00000 
CORINA 3.46 0026  05.08.2008
 12 12  0  0  0  0  0  0  0  0999 V2000
   -0.0162    1.3427    0.0094 O   0  0  0  0  0  0  0  0  0  0  0  0
   -3.5614   -0.7918    0.0327 C   0  0  0  0  0  0  0  0  0  0  0  0
   -3.5426   -2.1792    0.0250 C   0  0  0  0  0  0  0  0  0  0  0  0
   -2.3921   -2.8288    0.0106 N   0  0  0  0  0  0  0  0  0  0  0  0
   -1.2529   -2.1579    0.0024 C   0  0  0  0  0  0  0  0  0  0  0  0
   -1.2691   -0.7612    0.0101 C   0  0  0  0  0  0  0  0  0  0  0  0
   -2.4314   -0.1141    0.0251 N   0  0  0  0  0  0  0  0  0  0  0  0
    0.2591   -3.0106   -0.0160 Cl  0  0  0  0  0  0  0  0  0  0  0  0
    0.0021   -0.0041    0.0020 C   0  0  0  0  0  0  0  0  0  0  0  0
    1.0619   -0.5969   -0.0113 O   0  0  0  0  0  0  0  0  0  0  0  0
    1.2684    2.0194    0.0008 C   0  0  0  0  0  0  0  0  0  0  0  0
    1.0474    3.5334    0.0110 C   0  0  0  0  0  0  0  0  0  0  0  0
  2  3  2  0  0  0  0
  5  8  1  0  0  0  0
  4  5  2  0  0  0  0
  6  9  1  0  0  0  0
  9 10  2  0  0  0  0
  5  6  1  0  0  0  0
  3  4  1  0  0  0  0
  6  7  2  0  0  0  0
  9  1  1  0  0  0  0
  1 11  1  0  0  0  0
  7  2  1  0  0  0  0
 11 12  1  0  0  0  0
M  END
$$$$
