Untitled-1.MOL
  corina  08061409223D 1   1.00000     0.00000 
CORINA 3.49 0023  12.04.2013
 50 53  0  0  0                 1 V2000
   -0.0168    1.3872    0.0097 C   0  0  0  0  0
    0.0021   -0.0041    0.0020 C   0  0  0  0  0
    1.1484   -0.6752   -0.0121 N   0  0  0  0  0
    2.3187   -0.0611   -0.0199 C   0  0  0  0  0
    2.3899    1.3430   -0.0131 C   0  0  0  0  0
    1.1896    2.0852    0.0019 C   0  0  0  0  0
    3.4846   -0.8070   -0.0346 N   0  0  0  0  0
    3.6579    2.0083   -0.0206 C   0  0  0  0  0
    4.6639    2.5361   -0.0266 N   0  0  0  0  0
    1.2113    3.5668    0.0092 C   0  0  0  0  0
    0.4378    4.2827   -0.9039 C   0  0  0  0  0
    0.4623    5.6624   -0.8923 C   0  0  0  0  0
    1.2520    6.3353    0.0227 C   0  0  0  0  0
    2.0219    5.6305    0.9307 C   0  0  0  0  0
    2.0009    4.2508    0.9328 C   0  0  0  0  0
   -1.2789   -0.7501    0.0102 C   0  0  0  0  0
   -1.2769   -2.1443    0.0027 C   0  0  0  0  0
   -2.4724   -2.8334    0.0104 C   0  0  0  0  0
   -3.6714   -2.1435    0.0255 C   0  0  0  0  0
   -3.6797   -0.7602    0.0330 C   0  0  0  0  0
   -2.4904   -0.0604    0.0313 C   0  0  0  0  0
    3.4179   -2.2704   -0.0414 C   0  0  0  0  0
    4.8356   -2.8455   -0.0575 C   0  0  0  0  0
    4.7670   -4.3509   -0.0645 C   0  0  0  0  0
    4.7244   -5.0354   -1.2648 C   0  0  0  0  0
    4.6614   -6.4162   -1.2711 C   0  0  0  0  0
    4.6416   -7.1128   -0.0772 C   0  0  0  0  0
    4.6851   -6.4284    1.1230 C   0  0  0  0  0
    4.7525   -5.0477    1.1293 C   0  0  0  0  0
   -0.9560    1.9204    0.0170 H   0  0  0  0  0
    4.3458   -0.3607   -0.0404 H   0  0  0  0  0
   -0.1788    3.7584   -1.6189 H   0  0  0  0  0
   -0.1361    6.2179   -1.5993 H   0  0  0  0  0
    1.2679    7.4152    0.0280 H   0  0  0  0  0
    2.6367    6.1613    1.6424 H   0  0  0  0  0
    2.5986    3.7017    1.6453 H   0  0  0  0  0
   -0.3414   -2.6839   -0.0094 H   0  0  0  0  0
   -2.4721   -3.9134    0.0042 H   0  0  0  0  0
   -4.6047   -2.6870    0.0311 H   0  0  0  0  0
   -4.6188   -0.2269    0.0445 H   0  0  0  0  0
   -2.4980    1.0196    0.0420 H   0  0  0  0  0
    2.8964   -2.6145    0.8518 H   0  0  0  0  0
    2.8798   -2.6055   -0.9281 H   0  0  0  0  0
    5.3571   -2.5014   -0.9507 H   0  0  0  0  0
    5.3738   -2.5104    0.8291 H   0  0  0  0  0
    4.7399   -4.4912   -2.1975 H   0  0  0  0  0
    4.6274   -6.9509   -2.2089 H   0  0  0  0  0
    4.5916   -8.1916   -0.0822 H   0  0  0  0  0
    4.6693   -6.9725    2.0558 H   0  0  0  0  0
    4.7903   -4.5132    2.0670 H   0  0  0  0  0
  1  2  2  0  0  0
  1  6  1  0  0  0
  1 30  1  0  0  0
  2  3  1  0  0  0
  2 16  1  0  0  0
  3  4  2  0  0  0
  4  5  1  0  0  0
  4  7  1  0  0  0
  5  6  2  0  0  0
  5  8  1  0  0  0
  6 10  1  0  0  0
  7 22  1  0  0  0
  7 31  1  0  0  0
  8  9  3  0  0  0
 10 11  2  0  0  0
 10 15  1  0  0  0
 11 12  1  0  0  0
 11 32  1  0  0  0
 12 13  2  0  0  0
 12 33  1  0  0  0
 13 14  1  0  0  0
 13 34  1  0  0  0
 14 15  2  0  0  0
 14 35  1  0  0  0
 15 36  1  0  0  0
 16 17  2  0  0  0
 16 21  1  0  0  0
 17 18  1  0  0  0
 17 37  1  0  0  0
 18 19  2  0  0  0
 18 38  1  0  0  0
 19 20  1  0  0  0
 19 39  1  0  0  0
 20 21  2  0  0  0
 20 40  1  0  0  0
 21 41  1  0  0  0
 22 23  1  0  0  0
 22 42  1  0  0  0
 22 43  1  0  0  0
 23 24  1  0  0  0
 23 44  1  0  0  0
 23 45  1  0  0  0
 24 25  2  0  0  0
 24 29  1  0  0  0
 25 26  1  0  0  0
 25 46  1  0  0  0
 26 27  2  0  0  0
 26 47  1  0  0  0
 27 28  1  0  0  0
 27 48  1  0  0  0
 28 29  2  0  0  0
 28 49  1  0  0  0
 29 50  1  0  0  0
M  END
$$$$
