m384.mol
  corina  12080917083D 1   1.00000     0.00000 
CORINA 3.46 0026  05.08.2008
 25 26  0  0  0  0  0  0  0  0999 V2000
   -0.0167    1.3796    0.0096 C   0  0  0  0  0  0  0  0  0  0  0  0
    0.0021   -0.0041    0.0020 C   0  0  0  0  0  0  0  0  0  0  0  0
    1.2046   -0.6837   -0.0079 C   0  0  0  0  0  0  0  0  0  0  0  0
    2.4006    0.0223   -0.0103 C   0  0  0  0  0  0  0  0  0  0  0  0
    2.3816    1.4185   -0.0128 C   0  0  0  0  0  0  0  0  0  0  0  0
    1.1669    2.0917    0.0022 C   0  0  0  0  0  0  0  0  0  0  0  0
    3.6136   -0.6745    0.0052 N   0  0  0  0  0  0  0  0  0  0  0  0
    4.7677    0.0446   -0.2631 C   0  0  0  0  0  0  0  0  0  0  0  0
    4.7515    1.4609    0.2080 C   0  0  0  0  0  0  0  0  0  0  0  0
    3.5747    2.1481   -0.0450 N   0  0  0  0  0  0  0  0  0  0  0  0
    5.8261    2.0417    0.8461 C   0  0  0  0  0  0  0  0  0  0  0  0
    5.8492   -0.5068   -0.9155 C   0  0  0  0  0  0  0  0  0  0  0  0
    5.7536    3.3765    1.2665 C   0  0  0  0  0  0  0  0  0  0  0  0
    5.8077   -1.8432   -1.3348 C   0  0  0  0  0  0  0  0  0  0  0  0
    4.7429    4.0220    1.0684 O   0  0  0  0  0  0  0  0  0  0  0  0
    6.9286    4.0116    1.9643 C   0  0  0  0  0  0  0  0  0  0  0  0
    6.8811    5.5279    1.7657 C   0  0  0  0  0  0  0  0  0  0  0  0
    6.8683    3.6909    3.4591 C   0  0  0  0  0  0  0  0  0  0  0  0
    4.8179   -2.5161   -1.1231 O   0  0  0  0  0  0  0  0  0  0  0  0
    6.9903   -2.4461   -2.0482 C   0  0  0  0  0  0  0  0  0  0  0  0
    7.9432   -3.0646   -1.0232 C   0  0  0  0  0  0  0  0  0  0  0  0
    6.5056   -3.5302   -3.0129 C   0  0  0  0  0  0  0  0  0  0  0  0
   -1.2713   -0.7587    0.0050 N   0  3  0  0  0  0  0  0  0  0  0  0
   -2.3330   -0.1618    0.0142 O   0  5  0  0  0  0  0  0  0  0  0  0
   -1.2575   -1.9766   -0.0017 O   0  0  0  0  0  0  0  0  0  0  0  0
  1  2  2  0  0  0
  2  3  1  0  0  0
  3  4  2  0  0  0
  4  5  1  0  0  0
  5  6  2  0  0  0
  6  1  1  0  0  0
  4  7  1  0  0  0
  7  8  1  0  0  0
  8  9  1  0  0  0
  9 10  1  0  0  0
 10  5  1  0  0  0
  9 11  2  0  0  0
  8 12  2  0  0  0
 11 13  1  0  0  0
 12 14  1  0  0  0
 13 15  2  0  0  0
 13 16  1  0  0  0
 16 17  1  0  0  0
 16 18  1  0  0  0
 14 19  2  0  0  0
 14 20  1  0  0  0
 20 21  1  0  0  0
 20 22  1  0  0  0
  2 23  1  0  0  0
 23 24  1  0  0  0
 23 25  2  0  0  0
M  END
$$$$
