
  corina  10271010533D 1   1.00000     0.00000 
CORINA 3.46 0026  05.08.2008
 46 48  0  0  0  0  0  0  0  0999 V2000
    0.3975    0.8784   -0.6127 C   0  0  0  0  0  0  0  0  0  0  0  0
   -0.7708    1.6321   -0.5758 C   0  0  0  0  0  0  0  0  0  0  0  0
   -1.9999    1.0047   -0.4940 C   0  0  0  0  0  0  0  0  0  0  0  0
   -2.0589   -0.3939   -0.4486 C   0  0  0  0  0  0  0  0  0  0  0  0
   -0.8765   -1.1535   -0.4860 C   0  0  0  0  0  0  0  0  0  0  0  0
    0.3467   -0.5061   -0.5681 C   0  0  0  0  0  0  0  0  0  0  0  0
   -3.3468   -1.1014   -0.3608 C   0  0  0  0  0  0  0  0  0  0  0  0
   -3.3113   -2.5193   -0.3191 C   0  0  0  0  0  0  0  0  0  0  0  0
   -2.1092   -3.1613   -0.3612 C   0  0  0  0  0  0  0  0  0  0  0  0
   -0.9420   -2.5008   -0.4409 O   0  0  0  0  0  0  0  0  0  0  0  0
   -2.0895   -4.6349   -0.3170 C   0  0  0  0  0  0  0  0  0  0  0  0
   -2.9272   -5.3721   -1.1582 C   0  0  0  0  0  0  0  0  0  0  0  0
   -2.9068   -6.7500   -1.1156 C   0  0  0  0  0  0  0  0  0  0  0  0
   -2.0563   -7.4079   -0.2386 C   0  0  0  0  0  0  0  0  0  0  0  0
   -1.2178   -6.6789    0.6035 C   0  0  0  0  0  0  0  0  0  0  0  0
   -1.2284   -5.2982    0.5625 C   0  0  0  0  0  0  0  0  0  0  0  0
   -0.3859   -7.3272    1.4621 O   0  0  0  0  0  0  0  0  0  0  0  0
   -2.0409   -8.7660   -0.2001 O   0  0  0  0  0  0  0  0  0  0  0  0
   -4.4039   -0.4922   -0.3248 O   0  0  0  0  0  0  0  0  0  0  0  0
   -4.4672   -3.2322   -0.2374 O   0  0  0  0  0  0  0  0  0  0  0  0
   -3.1413    1.7389   -0.4575 O   0  0  0  0  0  0  0  0  0  0  0  0
   -2.9257   -9.4502   -1.0895 C   0  0  0  0  0  0  0  0  0  0  0  0
    0.4455   -6.5173    2.2956 C   0  0  0  0  0  0  0  0  0  0  0  0
    1.5990    1.5045   -0.6987 O   0  0  0  0  0  0  0  0  0  0  0  0
    1.5847    2.9328   -0.7409 C   0  0  0  0  0  0  0  0  0  0  0  0
   -2.7681  -10.9607   -0.9036 C   0  0  0  0  0  0  0  0  0  0  0  0
   -3.2023  -11.3320    0.4312 O   0  0  0  0  0  0  0  0  0  0  0  0
    3.0197    3.4546   -0.8368 C   0  0  0  0  0  0  0  0  0  0  0  0
    3.6025    3.0389   -2.1001 O   0  0  0  0  0  0  0  0  0  0  0  0
    1.3050   -7.4167    3.1864 C   0  0  0  0  0  0  0  0  0  0  0  0
    2.2201   -8.1837    2.3604 O   0  0  0  0  0  0  0  0  0  0  0  0
    4.8672    3.4181   -2.3419 C   0  0  0  0  0  0  0  0  0  0  0  0
    5.4674    4.0757   -1.5251 O   0  0  0  0  0  0  0  0  0  0  0  0
    5.5384    3.0237   -3.6322 C   0  0  0  0  0  0  0  0  0  0  0  0
    3.0503   -9.0279    2.9928 C   0  0  0  0  0  0  0  0  0  0  0  0
    3.0134   -9.1228    4.1968 O   0  0  0  0  0  0  0  0  0  0  0  0
    4.0282   -9.8574    2.2012 C   0  0  0  0  0  0  0  0  0  0  0  0
   -3.6524    2.0115    0.7540 C   0  0  0  0  0  0  0  0  0  0  0  0
   -4.9778    2.7192    0.8709 C   0  0  0  0  0  0  0  0  0  0  0  0
   -3.0497    1.6894    1.7504 O   0  0  0  0  0  0  0  0  0  0  0  0
   -3.1274  -12.6320    0.7568 C   0  0  0  0  0  0  0  0  0  0  0  0
   -3.5605  -13.0924    2.1249 C   0  0  0  0  0  0  0  0  0  0  0  0
   -2.7127  -13.4332   -0.0469 O   0  0  0  0  0  0  0  0  0  0  0  0
   -5.1709   -3.1234    0.9000 C   0  0  0  0  0  0  0  0  0  0  0  0
   -6.4901   -3.8383    1.0412 C   0  0  0  0  0  0  0  0  0  0  0  0
   -4.7456   -2.4501    1.8138 O   0  0  0  0  0  0  0  0  0  0  0  0
  3  4  2  0  0  0  0
  4  5  1  0  0  0  0
  5  6  2  0  0  0  0
  6  1  1  0  0  0  0
  4  7  1  0  0  0  0
  7  8  1  0  0  0  0
  8  9  2  0  0  0  0
  9 10  1  0  0  0  0
 10  5  1  0  0  0  0
  9 11  1  0  0  0  0
 11 12  2  0  0  0  0
 12 13  1  0  0  0  0
 13 14  2  0  0  0  0
 14 15  1  0  0  0  0
 15 16  2  0  0  0  0
 16 11  1  0  0  0  0
 15 17  1  0  0  0  0
 14 18  1  0  0  0  0
  7 19  2  0  0  0  0
  8 20  1  0  0  0  0
  3 21  1  0  0  0  0
 18 22  1  0  0  0  0
 17 23  1  0  0  0  0
  1 24  1  0  0  0  0
 24 25  1  0  0  0  0
 22 26  1  0  0  0  0
 26 27  1  0  0  0  0
 25 28  1  0  0  0  0
 28 29  1  0  0  0  0
 23 30  1  0  0  0  0
 30 31  1  0  0  0  0
 29 32  1  0  0  0  0
 32 33  2  0  0  0  0
 32 34  1  0  0  0  0
 31 35  1  0  0  0  0
 35 36  2  0  0  0  0
 35 37  1  0  0  0  0
 21 38  1  0  0  0  0
 38 39  1  0  0  0  0
 38 40  2  0  0  0  0
 27 41  1  0  0  0  0
 41 42  1  0  0  0  0
 41 43  2  0  0  0  0
 20 44  1  0  0  0  0
  1  2  2  0  0  0  0
 44 45  1  0  0  0  0
  2  3  1  0  0  0  0
 44 46  2  0  0  0  0
M  END
$$$$
