
  ACD/Labs10211514023D

 40 42  0  0  0  0  0  0  0  0  1 V2000
   20.3495   -4.3594   -0.1265 C   0  0  0  0  0  0  0  0  0  0  0  0
   19.7801   -5.5366    0.3242 C   0  0  0  0  0  0  0  0  0  0  0  0
   20.5371   -6.6908    0.3831 C   0  0  0  0  0  0  0  0  0  0  0  0
   20.0046   -7.8627    0.8223 O   0  0  0  0  0  0  0  0  0  0  0  0
   19.7762   -8.8783   -0.1455 C   0  0  0  0  0  0  0  0  0  0  0  0
   19.5116  -10.2006    0.5772 C   0  0  0  0  0  0  0  0  0  0  0  0
   19.2535  -11.3020   -0.4529 C   0  0  0  0  0  0  0  0  0  0  0  0
   18.5408   -8.5087   -0.9690 C   0  0  0  0  0  0  0  0  0  0  0  0
   17.3581   -8.3371   -0.0509 C   0  0  0  0  0  0  0  0  0  0  0  0
   17.5117   -8.3803    1.1467 O   0  0  0  0  0  0  0  0  0  0  0  0
   16.1340   -8.1361   -0.5637 O   0  0  0  0  0  0  0  0  0  0  0  0
   15.0416   -7.9791    0.3799 C   0  0  0  0  0  0  0  0  0  0  0  0
   20.8795   -9.0476   -1.0254 O   0  0  0  0  0  0  0  0  0  0  0  0
   22.1197   -9.0929   -0.4691 C   0  0  0  0  0  0  0  0  0  0  0  0
   22.6742   -7.9125    0.0547 C   0  0  0  0  0  0  0  0  0  0  0  0
   23.9401   -7.9392    0.6252 C   0  0  0  0  0  0  0  0  0  0  0  0
   24.6457   -9.1258    0.6751 C   0  0  0  0  0  0  0  0  0  0  0  0
   24.0969  -10.2868    0.1598 C   0  0  0  0  0  0  0  0  0  0  0  0
   22.8372  -10.2721   -0.4111 C   0  0  0  0  0  0  0  0  0  0  0  0
   21.8844   -6.6627   -0.0162 C   0  0  0  0  0  0  0  0  0  0  0  0
   22.4453   -5.4748   -0.4669 C   0  0  0  0  0  0  0  0  0  0  0  0
   21.6758   -4.3288   -0.5198 C   0  0  0  0  0  0  0  0  0  0  0  0
   19.7540   -3.4598   -0.1760 H   0  0  0  0  0  0  0  0  0  0  0  0
   18.7446   -5.5534    0.6303 H   0  0  0  0  0  0  0  0  0  0  0  0
   20.3795  -10.4644    1.1814 H   0  0  0  0  0  0  0  0  0  0  0  0
   18.6390  -10.0941    1.2216 H   0  0  0  0  0  0  0  0  0  0  0  0
   19.1059  -12.2522    0.0604 H   0  0  0  0  0  0  0  0  0  0  0  0
   18.3613  -11.0583   -1.0297 H   0  0  0  0  0  0  0  0  0  0  0  0
   20.1093  -11.3803   -1.1234 H   0  0  0  0  0  0  0  0  0  0  0  0
   18.7252   -7.5761   -1.5022 H   0  0  0  0  0  0  0  0  0  0  0  0
   18.3316   -9.3023   -1.6864 H   0  0  0  0  0  0  0  0  0  0  0  0
   14.9588   -8.8768    0.9925 H   0  0  0  0  0  0  0  0  0  0  0  0
   15.2356   -7.1188    1.0204 H   0  0  0  0  0  0  0  0  0  0  0  0
   14.1104   -7.8238   -0.1649 H   0  0  0  0  0  0  0  0  0  0  0  0
   24.3715   -7.0351    1.0289 H   0  0  0  0  0  0  0  0  0  0  0  0
   25.6302   -9.1474    1.1188 H   0  0  0  0  0  0  0  0  0  0  0  0
   24.6556  -11.2100    0.2035 H   0  0  0  0  0  0  0  0  0  0  0  0
   22.4146  -11.1820   -0.8112 H   0  0  0  0  0  0  0  0  0  0  0  0
   23.4802   -5.4470   -0.7746 H   0  0  0  0  0  0  0  0  0  0  0  0
   22.1113   -3.4048   -0.8705 H   0  0  0  0  0  0  0  0  0  0  0  0
  1  2  2  0  0  0  0
  2  3  1  0  0  0  0
  3  4  1  0  0  0  0
  4  5  1  0  0  0  0
  5  6  1  0  0  0  0
  6  7  1  0  0  0  0
  5  8  1  0  0  0  0
  8  9  1  0  0  0  0
  9 10  2  0  0  0  0
  9 11  1  0  0  0  0
 11 12  1  0  0  0  0
  5 13  1  0  0  0  0
 13 14  1  0  0  0  0
 14 15  2  0  0  0  0
 15 16  1  0  0  0  0
 16 17  2  0  0  0  0
 17 18  1  0  0  0  0
 18 19  2  0  0  0  0
 14 19  1  0  0  0  0
 15 20  1  0  0  0  0
  3 20  2  0  0  0  0
 20 21  1  0  0  0  0
 21 22  2  0  0  0  0
  1 22  1  0  0  0  0
  1 23  1  0  0  0  0
  2 24  1  0  0  0  0
  6 25  1  0  0  0  0
  6 26  1  0  0  0  0
  7 27  1  0  0  0  0
  7 28  1  0  0  0  0
  7 29  1  0  0  0  0
  8 30  1  0  0  0  0
  8 31  1  0  0  0  0
 12 32  1  0  0  0  0
 12 33  1  0  0  0  0
 12 34  1  0  0  0  0
 16 35  1  0  0  0  0
 17 36  1  0  0  0  0
 18 37  1  0  0  0  0
 19 38  1  0  0  0  0
 21 39  1  0  0  0  0
 22 40  1  0  0  0  0
M  END
