m374.cdx
  corina  12080917083D 1   1.00000     0.00000 
CORINA 3.46 0026  05.08.2008
 36 39  0  0  0  0  0  0  0  0999 V2000
    5.1235   -0.6308   -2.2073 C   0  0  0  0  0  0  0  0  0  0  0  0
    5.6780    0.0968   -3.2457 C   0  0  0  0  0  0  0  0  0  0  0  0
    5.4476    1.4577   -3.3459 C   0  0  0  0  0  0  0  0  0  0  0  0
    4.6631    2.0983   -2.4098 C   0  0  0  0  0  0  0  0  0  0  0  0
    4.1003    1.3703   -1.3591 C   0  0  0  0  0  0  0  0  0  0  0  0
    4.3367   -0.0030   -1.2643 C   0  0  0  0  0  0  0  0  0  0  0  0
    3.2591    2.0499   -0.3521 C   0  0  0  0  0  0  0  0  0  0  0  0
    2.4417    1.4147    0.2859 O   0  0  0  0  0  0  0  0  0  0  0  0
    3.4110    3.4985   -0.1208 C   0  0  0  0  0  0  0  0  0  0  0  0
    2.3484    4.2351    0.4176 C   0  0  0  0  0  0  0  0  0  0  0  0
    2.4766    5.5762    0.6358 C   0  0  0  0  0  0  0  0  0  0  0  0
    3.6720    6.2301    0.3243 C   0  0  0  0  0  0  0  0  0  0  0  0
    4.7522    5.4989   -0.2190 C   0  0  0  0  0  0  0  0  0  0  0  0
    4.6156    4.1311   -0.4337 C   0  0  0  0  0  0  0  0  0  0  0  0
    5.9239    6.1295   -0.5265 N   0  0  0  0  0  0  0  0  0  0  0  0
    3.7952    7.5686    0.5433 N   0  0  0  0  0  0  0  0  0  0  0  0
    2.8592    8.3855    0.1393 C   0  0  0  0  0  0  0  0  0  0  0  0
    7.0584    5.6355   -0.1134 C   0  0  0  0  0  0  0  0  0  0  0  0
    2.9916    9.8290    0.3763 C   0  0  0  0  0  0  0  0  0  0  0  0
    8.3196    6.3144   -0.4441 C   0  0  0  0  0  0  0  0  0  0  0  0
    8.3077    7.4930   -1.2031 C   0  0  0  0  0  0  0  0  0  0  0  0
    9.5072    8.1263   -1.5091 C   0  0  0  0  0  0  0  0  0  0  0  0
   10.7057    7.5926   -1.0646 C   0  0  0  0  0  0  0  0  0  0  0  0
   10.7184    6.4277   -0.3149 C   0  0  0  0  0  0  0  0  0  0  0  0
    9.5388    5.7909    0.0020 C   0  0  0  0  0  0  0  0  0  0  0  0
    1.9908   10.7081   -0.0550 C   0  0  0  0  0  0  0  0  0  0  0  0
    2.1195   12.0610    0.1701 C   0  0  0  0  0  0  0  0  0  0  0  0
    3.2356   12.5594    0.8218 C   0  0  0  0  0  0  0  0  0  0  0  0
    4.2350   11.7031    1.2550 C   0  0  0  0  0  0  0  0  0  0  0  0
    4.1189   10.3342    1.0413 C   0  0  0  0  0  0  0  0  0  0  0  0
    7.1308    8.0132   -1.6376 O   0  0  0  0  0  0  0  0  0  0  0  0
    9.5037    9.2699   -2.2453 O   0  0  0  0  0  0  0  0  0  0  0  0
   10.7721    9.8670   -2.5221 C   0  0  0  0  0  0  0  0  0  0  0  0
    5.0962    9.4920    1.4645 O   0  0  0  0  0  0  0  0  0  0  0  0
    5.3276   12.2012    1.8935 O   0  0  0  0  0  0  0  0  0  0  0  0
    5.3787   13.6166    2.0835 C   0  0  0  0  0  0  0  0  0  0  0  0
  1  2  2  0  0  0
  2  3  1  0  0  0
  3  4  2  0  0  0
  4  5  1  0  0  0
  5  6  2  0  0  0
  6  1  1  0  0  0
  5  7  1  0  0  0
  7  8  2  0  0  0
  7  9  1  0  0  0
  9 10  2  0  0  0
 10 11  1  0  0  0
 11 12  2  0  0  0
 12 13  1  0  0  0
 13 14  2  0  0  0
 14  9  1  0  0  0
 13 15  1  0  0  0
 12 16  1  0  0  0
 16 17  2  0  0  0
 15 18  2  0  0  0
 17 19  1  0  0  0
 18 20  1  0  0  0
 20 21  2  0  0  0
 21 22  1  0  0  0
 22 23  2  0  0  0
 23 24  1  0  0  0
 24 25  2  0  0  0
 25 20  1  0  0  0
 19 26  2  0  0  0
 26 27  1  0  0  0
 27 28  2  0  0  0
 28 29  1  0  0  0
 29 30  2  0  0  0
 30 19  1  0  0  0
 21 31  1  0  0  0
 22 32  1  0  0  0
 32 33  1  0  0  0
 30 34  1  0  0  0
 29 35  1  0  0  0
 35 36  1  0  0  0
M  END
$$$$
