m359.cdx
  corina  12080917083D 1   1.00000     0.00000 
CORINA 3.46 0026  05.08.2008
 22 23  0  0  0  0  0  0  0  0999 V2000
    0.4697    1.1472    1.6835 C   0  0  0  0  0  0  0  0  0  0  0  0
    0.0851    0.0601    0.9134 C   0  0  0  0  0  0  0  0  0  0  0  0
    0.8539   -0.3461   -0.1599 C   0  0  0  0  0  0  0  0  0  0  0  0
    2.0202    0.3322   -0.4767 C   0  0  0  0  0  0  0  0  0  0  0  0
    2.4161    1.4368    0.3013 C   0  0  0  0  0  0  0  0  0  0  0  0
    1.6239    1.8360    1.3876 C   0  0  0  0  0  0  0  0  0  0  0  0
    2.7758   -0.0659   -1.5297 O   0  0  0  0  0  0  0  0  0  0  0  0
    3.6443    2.1620   -0.0206 C   0  0  0  0  0  0  0  0  0  0  0  0
    3.6276    3.5401   -0.1173 C   0  0  0  0  0  0  0  0  0  0  0  0
    4.8756    4.3199   -0.2374 C   0  0  0  0  0  0  0  0  0  0  0  0
    4.7812    5.6626   -0.3275 N   0  0  0  0  0  0  0  0  0  0  0  0
    3.5943    6.2848   -0.3094 C   0  0  0  0  0  0  0  0  0  0  0  0
    2.4228    5.6427   -0.2026 N   0  0  0  0  0  0  0  0  0  0  0  0
    2.3606    4.2982   -0.1113 C   0  0  0  0  0  0  0  0  0  0  0  0
    2.3106   -1.1949   -2.2720 C   0  0  0  0  0  0  0  0  0  0  0  0
    5.9590    3.7669   -0.2542 O   0  0  0  0  0  0  0  0  0  0  0  0
    6.0048    6.4592   -0.4476 C   0  0  0  0  0  0  0  0  0  0  0  0
    6.3561    6.6348   -1.9263 C   0  0  0  0  0  0  0  0  0  0  0  0
    3.5736    7.9925   -0.4287 S   0  0  0  0  0  0  0  0  0  0  0  0
    1.1802    6.4186   -0.1919 C   0  0  0  0  0  0  0  0  0  0  0  0
    0.6720    6.5875   -1.6252 C   0  0  0  0  0  0  0  0  0  0  0  0
    1.2909    3.7271   -0.0152 O   0  0  0  0  0  0  0  0  0  0  0  0
  1  2  2  0  0  0
  2  3  1  0  0  0
  3  4  2  0  0  0
  4  5  1  0  0  0
  5  6  2  0  0  0
  6  1  1  0  0  0
  4  7  1  0  0  0
  5  8  1  0  0  0
  8  9  2  0  0  0
  9 10  1  0  0  0
 10 11  1  0  0  0
 11 12  1  0  0  0
 12 13  1  0  0  0
 13 14  1  0  0  0
 14  9  1  0  0  0
  7 15  1  0  0  0
 10 16  2  0  0  0
 11 17  1  0  0  0
 17 18  1  0  0  0
 12 19  2  0  0  0
 13 20  1  0  0  0
 20 21  1  0  0  0
 14 22  2  0  0  0
M  END
$$$$
