
  corina  12241010573D 1   1.00000     0.00000 
CORINA 3.46 0026  05.08.2008
 22 23  0  0  0  0  0  0  0  0  1 V2000
   -0.0176    1.4478    0.0100 C   0  0  0  0  0  0  0  0  0  0  0  0
    0.0021   -0.0041    0.0020 O   0  0  0  0  0  0  0  0  0  0  0  0
   -2.2179    0.0157    0.0233 O   0  0  0  0  0  0  0  0  0  0  0  0
   -1.1901   -0.6321    0.0100 C   0  0  0  0  0  0  0  0  0  0  0  0
   -0.1238   -4.2284   -0.0186 C   0  0  0  0  0  0  0  0  0  0  0  0
   -0.0659   -2.8529   -0.0122 C   0  0  0  0  0  0  0  0  0  0  0  0
   -1.2473   -2.1057    0.0027 C   0  0  0  0  0  0  0  0  0  0  0  0
   -2.4830   -2.7592    0.0109 C   0  0  0  0  0  0  0  0  0  0  0  0
   -2.5319   -4.1351    0.0045 C   0  0  0  0  0  0  0  0  0  0  0  0
   -1.3547   -4.8743   -0.0107 C   0  0  0  0  0  0  0  0  0  0  0  0
   -1.4074   -6.2303   -0.0175 O   0  0  0  0  0  0  0  0  0  0  0  0
   -0.1603   -6.9279   -0.0332 C   0  0  0  0  0  0  0  0  0  0  0  0
    0.9231   -6.2190    1.6497 H   0  0  0  0  0  0  0  0  0  0  0  0
   -0.4854   -8.9671    1.7012 O   0  0  0  0  0  0  0  0  0  0  0  0
    0.3959   -6.9642    1.3216 N   0  0  0  0  0  0  0  0  0  0  0  0
    0.1752   -8.0332    2.1123 C   0  0  0  0  0  0  0  0  0  0  0  0
    1.7868   -8.1380    6.0409 C   0  0  0  0  0  0  0  0  0  0  0  0
    2.0153   -7.0392    5.2319 C   0  0  0  0  0  0  0  0  0  0  0  0
    1.4951   -6.9990    3.9547 C   0  0  0  0  0  0  0  0  0  0  0  0
    0.7366   -8.0699    3.4795 C   0  0  0  0  0  0  0  0  0  0  0  0
    0.5099   -9.1754    4.3009 C   0  0  0  0  0  0  0  0  0  0  0  0
    1.0361   -9.2031    5.5758 C   0  0  0  0  0  0  0  0  0  0  0  0
  2  1  1  0
  4  2  1  0
  4  3  2  0
  7  4  1  0
 10  9  1  0
  9  8  2  0
  8  7  1  0
  7  6  2  0
  6  5  1  0
  5 10  2  0
 11 10  1  0
 12 11  1  0
 15 12  1  0
 15 13  1  0
 16 14  2  0
 16 15  1  0
 20 16  1  0
 22 21  1  0
 21 20  2  0
 20 19  1  0
 19 18  2  0
 18 17  1  0
 17 22  2  0
M  END
$$$$
