
  corina  12080917083D 1   1.00000     0.00000 
CORINA 3.46 0026  05.08.2008
 21 23  0  0  0  0  0  0  0  0999 V2000
   -0.2366    1.8656    0.9812 N   0  0  0  0  0  0  0  0  0  0  0  0
   -0.3127    0.2418    1.2971 S   0  0  3  0  0  0  0  0  0  0  0  0
    0.5853   -0.0426    2.7861 C   0  0  0  0  0  0  0  0  0  0  0  0
   -1.6733   -0.0471    1.5876 O   0  0  0  0  0  0  0  0  0  0  0  0
    0.4146   -0.4031    0.2605 O   0  0  0  0  0  0  0  0  0  0  0  0
   -0.0624    0.0164    4.0059 C   0  0  0  0  0  0  0  0  0  0  0  0
    0.6421   -0.2066    5.1741 C   0  0  0  0  0  0  0  0  0  0  0  0
    1.9943   -0.4891    5.1225 C   0  0  0  0  0  0  0  0  0  0  0  0
    2.6420   -0.5485    3.9027 C   0  0  0  0  0  0  0  0  0  0  0  0
    1.9365   -0.3302    2.7342 C   0  0  0  0  0  0  0  0  0  0  0  0
    2.7625   -0.7318    6.3961 C   0  0  0  0  0  0  0  0  0  0  0  0
    2.2776    4.0861   -0.7220 C   0  0  0  0  0  0  0  0  0  0  0  0
    2.8966    4.7117    0.5194 C   0  0  3  0  0  0  0  0  0  0  0  0
    1.7754    4.6471    1.6016 C   0  0  3  0  0  0  0  0  0  0  0  0
    0.8539    3.6869   -0.3089 C   0  0  3  0  0  0  0  0  0  0  0  0
    0.5052    4.8384    0.6986 C   0  0  0  0  0  0  0  0  0  0  0  0
    1.6579    3.1301    1.9448 C   0  0  0  0  0  0  0  0  0  0  0  0
    1.0513    2.4924    0.6736 C   0  0  3  0  0  0  0  0  0  0  0  0
    2.8384    3.9271   -1.8952 C   0  0  0  0  0  0  0  0  0  0  0  0
    4.1175    3.9066    0.9690 C   0  0  0  0  0  0  0  0  0  0  0  0
    3.2878    6.1651    0.2444 C   0  0  0  0  0  0  0  0  0  0  0  0
  2  3  1  0  0  0  0
  8 11  1  0  0  0  0
  3  6  2  0  0  0  0
  1  2  1  0  0  0  0
  6  7  1  0  0  0  0
  2  4  2  0  0  0  0
  7  8  2  0  0  0  0
  8  9  1  0  0  0  0
 12 13  1  0  0  0  0
 13 14  1  0  0  0  0
 12 15  1  0  0  0  0
 15 16  1  0  0  0  0
 16 14  1  0  0  0  0
 14 17  1  0  0  0  0
 17 18  1  0  0  0  0
 18 15  1  0  0  0  0
  2  5  2  0  0  0  0
 12 19  2  0  0  0  0
  9 10  2  0  0  0  0
 13 20  1  0  0  0  0
 10  3  1  0  0  0  0
 13 21  1  0  0  0  0
 18  1  1  0  0  0  0
M  END
$$$$
