
  corina  12080917083D 1   1.00000     0.00000 
CORINA 3.46 0026  05.08.2008
 20 22  0  0  0  0  0  0  0  0999 V2000
   -0.0160    1.3274    0.0093 N   0  0  0  0  0  0  0  0  0  0  0  0
    1.0923    1.9875    0.0023 N   0  0  0  0  0  0  0  0  0  0  0  0
    2.2543    1.3375   -0.0123 C   0  0  0  0  0  0  0  0  0  0  0  0
    2.2724    0.0060   -0.0200 N   0  0  0  0  0  0  0  0  0  0  0  0
    1.1641   -0.6541   -0.0130 N   0  0  0  0  0  0  0  0  0  0  0  0
    0.0021   -0.0041    0.0020 C   0  0  0  0  0  0  0  0  0  0  0  0
    3.5265    2.0952   -0.0204 C   0  0  0  0  0  0  0  0  0  0  0  0
   -1.2700   -0.7618    0.0096 C   0  0  0  0  0  0  0  0  0  0  0  0
    3.5116    3.4892   -0.0070 C   0  0  0  0  0  0  0  0  0  0  0  0
    4.7000    4.1902   -0.0089 C   0  0  0  0  0  0  0  0  0  0  0  0
    5.9080    3.5149   -0.0245 C   0  0  0  0  0  0  0  0  0  0  0  0
    5.9352    2.1334   -0.0383 C   0  0  0  0  0  0  0  0  0  0  0  0
    4.7498    1.4155   -0.0357 C   0  0  0  0  0  0  0  0  0  0  0  0
   -1.2552   -2.1558    0.0010 C   0  0  0  0  0  0  0  0  0  0  0  0
   -2.4435   -2.8568    0.0081 C   0  0  0  0  0  0  0  0  0  0  0  0
   -3.6515   -2.1816    0.0237 C   0  0  0  0  0  0  0  0  0  0  0  0
   -3.6787   -0.8000    0.0323 C   0  0  0  0  0  0  0  0  0  0  0  0
   -2.4934   -0.0821    0.0312 C   0  0  0  0  0  0  0  0  0  0  0  0
   -2.5187    1.2754    0.0396 O   0  0  0  0  0  0  0  0  0  0  0  0
    4.7752    0.0580   -0.0488 O   0  0  0  0  0  0  0  0  0  0  0  0
  9 10  1  0  0  0  0
  2  3  1  0  0  0  0
 10 11  2  0  0  0  0
  5  6  2  0  0  0  0
 11 12  1  0  0  0  0
  6  1  1  0  0  0  0
 12 13  2  0  0  0  0
 13  7  1  0  0  0  0
  1  2  2  0  0  0  0
  8 14  2  0  0  0  0
  3  7  1  0  0  0  0
 14 15  1  0  0  0  0
  3  4  2  0  0  0  0
 15 16  2  0  0  0  0
  6  8  1  0  0  0  0
 16 17  1  0  0  0  0
 17 18  2  0  0  0  0
 18  8  1  0  0  0  0
  7  9  2  0  0  0  0
 18 19  1  0  0  0  0
  4  5  1  0  0  0  0
 13 20  1  0  0  0  0
M  END
$$$$
