m459.cdx
  corina  12080917093D 1   1.00000     0.00000 
CORINA 3.46 0026  05.08.2008
 17 18  0  0  0  0  0  0  0  0999 V2000
   -0.0170    1.4052    0.0098 C   0  0  0  0  0  0  0  0  0  0  0  0
    0.0021   -0.0041    0.0020 C   0  0  0  0  0  0  0  0  0  0  0  0
    1.2135   -0.6766   -0.0136 C   0  0  0  0  0  0  0  0  0  0  0  0
    2.3986    0.0423   -0.0214 C   0  0  0  0  0  0  0  0  0  0  0  0
    2.3798    1.4244   -0.0134 C   0  0  0  0  0  0  0  0  0  0  0  0
    1.1756    2.1107    0.0022 C   0  0  0  0  0  0  0  0  0  0  0  0
   -1.4441    1.7903    0.0196 C   0  0  0  0  0  0  0  0  0  0  0  0
   -2.1902    0.6709    0.0175 N   0  0  0  0  0  0  0  0  0  0  0  0
   -1.4140   -0.4278    0.0133 C   0  0  0  0  0  0  0  0  0  0  0  0
   -1.8715    2.9271    0.0284 O   0  0  0  0  0  0  0  0  0  0  0  0
   -1.8104   -1.5758    0.0106 O   0  0  0  0  0  0  0  0  0  0  0  0
   -3.6060    0.6517    0.0255 O   0  0  0  0  0  0  0  0  0  0  0  0
   -4.1946    0.6511   -1.2767 C   0  0  0  0  0  0  0  0  0  0  0  0
   -5.5667    0.0316   -1.2075 C   0  0  0  0  0  0  0  0  0  0  0  0
   -4.3096    2.0896   -1.7850 C   0  0  0  0  0  0  0  0  0  0  0  0
   -5.8378   -1.0397   -1.9109 C   0  0  0  0  0  0  0  0  0  0  0  0
   -7.2098   -1.6593   -1.8418 C   0  0  0  0  0  0  0  0  0  0  0  0
  1  2  2  0  0  0
  2  3  1  0  0  0
  3  4  2  0  0  0
  4  5  1  0  0  0
  5  6  2  0  0  0
  6  1  1  0  0  0
  1  7  1  0  0  0
  7  8  1  0  0  0
  8  9  1  0  0  0
  9  2  1  0  0  0
  7 10  2  0  0  0
  9 11  2  0  0  0
  8 12  1  0  0  0
 12 13  1  0  0  0
 13 14  1  0  0  0
 13 15  1  0  0  0
 14 16  2  0  0  0
 16 17  1  0  0  0
M  END
$$$$
