m518-1.cdx
  corina  12080917093D 1   1.00000     0.00000 
CORINA 3.46 0026  05.08.2008
 23 26  0  0  0  0  0  0  0  0999 V2000
   -0.0173    1.3878   -0.0046 C   0  0  0  0  0  0  0  0  0  0  0  0
    0.0018   -0.0049   -0.0143 C   0  0  0  0  0  0  0  0  0  0  0  0
    1.1777   -0.6918   -0.0268 C   0  0  0  0  0  0  0  0  0  0  0  0
    2.3961    0.0079   -0.0301 C   0  0  0  0  0  0  0  0  0  0  0  0
    2.3747    1.4262   -0.0203 C   0  0  0  0  0  0  0  0  0  0  0  0
    1.1425    2.1018   -0.0074 C   0  0  0  0  0  0  0  0  0  0  0  0
    3.5612   -0.6501   -0.0419 N   0  0  0  0  0  0  0  0  0  0  0  0
    4.7139   -0.0149   -0.0448 C   0  0  0  0  0  0  0  0  0  0  0  0
    4.7733    1.4016   -0.0351 C   0  0  0  0  0  0  0  0  0  0  0  0
    3.5892    2.1331   -0.0235 C   0  0  0  0  0  0  0  0  0  0  0  0
    6.2119   -0.9425   -0.0605 S   0  0  0  0  0  0  0  0  0  0  0  0
    5.5630   -2.5740    0.0881 C   0  0  0  0  0  0  0  0  0  0  0  0
    6.0693    2.0892   -0.0376 C   0  0  0  0  0  0  0  0  0  0  0  0
    6.1128    3.3014   -0.0292 O   0  0  0  0  0  0  0  0  0  0  0  0
    5.3431   -3.3263   -1.0452 C   0  0  0  0  0  0  0  0  0  0  0  0
    4.8263   -4.6261   -0.9227 C   0  0  0  0  0  0  0  0  0  0  0  0
    4.5393   -5.1433    0.3655 C   0  0  0  0  0  0  0  0  0  0  0  0
    4.7757   -4.3481    1.5009 C   0  0  0  0  0  0  0  0  0  0  0  0
    5.2814   -3.0951    1.3572 C   0  0  0  0  0  0  0  0  0  0  0  0
    4.5878   -5.4246   -2.0552 C   0  0  0  0  0  0  0  0  0  0  0  0
    4.0859   -6.6800   -1.9004 C   0  0  0  0  0  0  0  0  0  0  0  0
    3.8033   -7.1883   -0.6338 C   0  0  0  0  0  0  0  0  0  0  0  0
    4.0219   -6.4443    0.4848 C   0  0  0  0  0  0  0  0  0  0  0  0
  1  2  2  0      
  2  3  1  0      
  3  4  2  0      
  4  5  1  0      
  5  6  2  0      
  6  1  1  0      
  4  7  1  0      
  7  8  2  0      
  8  9  1  0      
  9 10  2  0      
 10  5  1  0      
  8 11  1  0      
 11 12  1  0      
  9 13  1  0      
 13 14  2  0      
 12 15  2  0      
 15 16  1  0      
 16 17  2  0      
 17 18  1  0      
 18 19  2  0      
 19 12  1  0      
 16 20  1  0      
 20 21  2  0      
 21 22  1  0      
 22 23  2  0      
 23 17  1  0      
M  END
$$$$
