Molbank-00-65.mol
  corina  12080917093D 1   1.00000     0.00000 
CORINA 3.46 0026  05.08.2008
 14 14  0  0  0  0  0  0  0  0999 V2000
    0.7650    0.0556    1.1098 C   0  0  0  0  0  0  0  0  0  0  0  0
    0.0046   -0.0082   -0.0487 C   0  0  0  0  0  0  0  0  0  0  0  0
    0.4351    0.6393   -1.1974 C   0  0  0  0  0  0  0  0  0  0  0  0
    1.6207    1.3476   -1.1878 C   0  0  0  0  0  0  0  0  0  0  0  0
    2.3810    1.4114   -0.0294 C   0  0  0  0  0  0  0  0  0  0  0  0
    1.9506    0.7639    1.1194 C   0  0  0  0  0  0  0  0  0  0  0  0
   -1.1623   -0.7059   -0.0583 O   0  0  0  0  0  0  0  0  0  0  0  0
    3.5486    2.1084   -0.0200 O   0  0  0  0  0  0  0  0  0  0  0  0
    3.4616    3.4446   -0.1163 C   0  0  0  0  0  0  0  0  0  0  0  0
    4.7133    4.2740   -0.2437 C   0  0  0  0  0  0  0  0  0  0  0  0
    2.3796    3.9822   -0.1008 O   0  0  0  0  0  0  0  0  0  0  0  0
    4.3428    5.7319   -0.3345 C   0  0  0  0  0  0  0  0  0  0  0  0
    5.4208    6.7764   -0.4691 C   0  0  0  0  0  0  0  0  0  0  0  0
    3.1821    6.0633   -0.2994 O   0  0  0  0  0  0  0  0  0  0  0  0
  1  2  2  0  0  0  0
  2  3  1  0  0  0  0
  3  4  2  0  0  0  0
  4  5  1  0  0  0  0
  5  6  2  0  0  0  0
  1  6  1  0  0  0  0
  2  7  1  0  0  0  0
  5  8  1  0  0  0  0
  8  9  1  0  0  0  0
  9 10  1  0  0  0  0
  9 11  2  0  0  0  0
 10 12  1  0  0  0  0
 12 13  1  0  0  0  0
 12 14  2  0  0  0  0
M  END
$$$$
