m355.cdx
  corina  12080917083D 1   1.00000     0.00000 
CORINA 3.46 0026  05.08.2008
 30 33  0  0  0  0  0  0  0  0999 V2000
   -0.0167    1.3795    0.0096 C   0  0  0  0  0  0  0  0  0  0  0  0
    0.0021   -0.0041    0.0020 C   0  0  0  0  0  0  0  0  0  0  0  0
    1.2048   -0.6836   -0.0080 C   0  0  0  0  0  0  0  0  0  0  0  0
    2.4007    0.0223   -0.0103 C   0  0  0  0  0  0  0  0  0  0  0  0
    2.3816    1.4183   -0.0129 C   0  0  0  0  0  0  0  0  0  0  0  0
    1.1672    2.0915    0.0021 C   0  0  0  0  0  0  0  0  0  0  0  0
    3.6140   -0.6751    0.0053 N   0  0  0  0  0  0  0  0  0  0  0  0
    4.7705    0.0449   -0.2633 C   0  0  0  0  0  0  0  0  0  0  0  0
    4.7543    1.4606    0.2077 C   0  0  0  0  0  0  0  0  0  0  0  0
    3.5751    2.1485   -0.0454 N   0  0  0  0  0  0  0  0  0  0  0  0
    5.8425   -0.5019   -0.9096 C   0  0  0  0  0  0  0  0  0  0  0  0
    5.8192    2.0362    0.8406 C   0  0  0  0  0  0  0  0  0  0  0  0
    5.7460    3.3802    1.2639 C   0  0  0  0  0  0  0  0  0  0  0  0
    4.7330    4.0272    1.0649 O   0  0  0  0  0  0  0  0  0  0  0  0
    6.8996    4.0038    1.9495 C   0  0  0  0  0  0  0  0  0  0  0  0
    5.8005   -1.8475   -1.3318 C   0  0  0  0  0  0  0  0  0  0  0  0
    6.9619   -2.4399   -2.0320 C   0  0  0  0  0  0  0  0  0  0  0  0
    4.8082   -2.5218   -1.1198 O   0  0  0  0  0  0  0  0  0  0  0  0
    6.8304    5.3331    2.3695 C   0  0  0  0  0  0  0  0  0  0  0  0
    7.9094    5.9086    3.0081 C   0  0  0  0  0  0  0  0  0  0  0  0
    9.0586    5.1711    3.2321 C   0  0  0  0  0  0  0  0  0  0  0  0
    9.1338    3.8530    2.8178 C   0  0  0  0  0  0  0  0  0  0  0  0
    8.0594    3.2636    2.1841 C   0  0  0  0  0  0  0  0  0  0  0  0
    6.9236   -3.7707   -2.4509 C   0  0  0  0  0  0  0  0  0  0  0  0
    8.0096   -4.3169   -3.1031 C   0  0  0  0  0  0  0  0  0  0  0  0
    9.1353   -3.5485   -3.3419 C   0  0  0  0  0  0  0  0  0  0  0  0
    9.1798   -2.2286   -2.9288 C   0  0  0  0  0  0  0  0  0  0  0  0
    8.0980   -1.6685   -2.2815 C   0  0  0  0  0  0  0  0  0  0  0  0
   10.2336    5.8064    3.9299 C   0  0  0  0  0  0  0  0  0  0  0  0
   10.3182   -4.1518   -4.0545 C   0  0  0  0  0  0  0  0  0  0  0  0
  1  2  2  0  0  0
  2  3  1  0  0  0
  3  4  2  0  0  0
  4  5  1  0  0  0
  5  6  2  0  0  0
  6  1  1  0  0  0
  4  7  1  0  0  0
  7  8  1  0  0  0
  8  9  1  0  0  0
  9 10  1  0  0  0
 10  5  1  0  0  0
  8 11  2  0  0  0
  9 12  2  0  0  0
 12 13  1  0  0  0
 13 14  2  0  0  0
 13 15  1  0  0  0
 11 16  1  0  0  0
 16 17  1  0  0  0
 16 18  2  0  0  0
 15 19  2  0  0  0
 19 20  1  0  0  0
 20 21  2  0  0  0
 21 22  1  0  0  0
 22 23  2  0  0  0
 23 15  1  0  0  0
 17 24  2  0  0  0
 24 25  1  0  0  0
 25 26  2  0  0  0
 26 27  1  0  0  0
 27 28  2  0  0  0
 28 17  1  0  0  0
 21 29  1  0  0  0
 26 30  1  0  0  0
M  END
$$$$
