m463.cdx
  corina  12080917093D 1   1.00000     0.00000 
CORINA 3.46 0026  05.08.2008
 26 28  0  0  0  0  0  0  0  0999 V2000
   -0.0167    1.3781    0.0096 C   0  0  0  0  0  0  0  0  0  0  0  0
    0.0021   -0.0041    0.0020 C   0  0  0  0  0  0  0  0  0  0  0  0
    1.2084   -0.6789   -0.0132 C   0  0  0  0  0  0  0  0  0  0  0  0
    2.3960    0.0285   -0.0212 C   0  0  0  0  0  0  0  0  0  0  0  0
    2.3773    1.4107   -0.0145 C   0  0  0  0  0  0  0  0  0  0  0  0
    1.1710    2.0855    0.0021 C   0  0  0  0  0  0  0  0  0  0  0  0
    3.6720    2.1819   -0.0228 C   0  0  0  0  0  0  0  0  0  0  0  0
    4.0905    2.4457   -1.4463 C   0  0  0  0  0  0  0  0  0  0  0  0
    3.4052    2.0469   -2.3634 O   0  0  0  0  0  0  0  0  0  0  0  0
    5.2266    3.1249   -1.6998 N   0  0  0  0  0  0  0  0  0  0  0  0
    5.7201    3.4312   -2.9178 C   0  0  0  0  0  0  0  0  0  0  0  0
    6.8678    4.1128   -2.7284 N   0  0  0  0  0  0  0  0  0  0  0  0
    7.0839    4.2277   -1.3756 C   0  0  0  0  0  0  0  0  0  0  0  0
    6.1111    3.6491   -0.7471 N   0  0  0  0  0  0  0  0  0  0  0  0
    8.2570    4.9193   -0.7302 C   0  0  0  0  0  0  0  0  0  0  0  0
    8.1289    4.8277    0.7917 C   0  0  0  0  0  0  0  0  0  0  0  0
    5.2212    3.1444   -3.9902 O   0  0  0  0  0  0  0  0  0  0  0  0
    7.6983    4.6173   -3.7376 N   0  0  0  0  0  0  0  0  0  0  0  0
    7.3838    4.4427   -4.9847 C   0  0  0  0  0  0  0  0  0  0  0  0
    8.2576    4.9735   -6.0465 C   0  0  0  0  0  0  0  0  0  0  0  0
    7.9210    4.7867   -7.3899 C   0  0  0  0  0  0  0  0  0  0  0  0
    8.7406    5.2850   -8.3791 C   0  0  0  0  0  0  0  0  0  0  0  0
    9.9000    5.9721   -8.0427 C   0  0  0  0  0  0  0  0  0  0  0  0
   10.2389    6.1598   -6.7087 C   0  0  0  0  0  0  0  0  0  0  0  0
    9.4224    5.6700   -5.7127 C   0  0  0  0  0  0  0  0  0  0  0  0
   10.7051    6.4616   -9.0211 O   0  0  0  0  0  0  0  0  0  0  0  0
  1  2  2  0  0  0
  2  3  1  0  0  0
  3  4  2  0  0  0
  4  5  1  0  0  0
  5  6  2  0  0  0
  6  1  1  0  0  0
  5  7  1  0  0  0
  7  8  1  0  0  0
  8  9  2  0  0  0
  8 10  1  0  0  0
 10 11  1  0  0  0
 11 12  1  0  0  0
 12 13  1  0  0  0
 13 14  2  0  0  0
 14 10  1  0  0  0
 13 15  1  0  0  0
 15 16  1  0  0  0
 11 17  2  0  0  0
 12 18  1  0  0  0
 18 19  2  0  0  0
 19 20  1  0  0  0
 20 21  2  0  0  0
 21 22  1  0  0  0
 22 23  2  0  0  0
 23 24  1  0  0  0
 24 25  2  0  0  0
 25 20  1  0  0  0
 23 26  1  0  0  0
M  END
$$$$
