5-Pentadecyl-2-((p-tolylimino)methyl)phenol.mol
  corina  07181305053D 1   1.00000     0.00000 
CORINA 3.49 0023  12.04.2013
 33 34  0  0  0  0  0  0  0  0999 V2000
   -0.0169    1.3945    0.0097 C   0  0  0  0  0  0  0  0  0  0  0  0
    0.0021   -0.0041    0.0020 C   0  0  0  0  0  0  0  0  0  0  0  0
    1.1938    2.1039    0.0020 C   0  0  0  0  0  0  0  0  0  0  0  0
    1.2058   -0.6742   -0.0131 C   0  0  0  0  0  0  0  0  0  0  0  0
    2.3947    1.4120   -0.0132 C   0  0  0  0  0  0  0  0  0  0  0  0
    2.3985    0.0307   -0.0207 C   0  0  0  0  0  0  0  0  0  0  0  0
    1.1889    3.4609    0.0088 O   0  0  0  0  0  0  0  0  0  0  0  0
   -1.2974    2.1169    0.0197 C   0  0  0  0  0  0  0  0  0  0  0  0
   -1.3104    3.4206    0.0268 N   0  0  0  0  0  0  0  0  0  0  0  0
    3.7084   -0.7143   -0.0367 C   0  0  0  0  0  0  0  0  0  0  0  0
    4.0761   -1.0685   -1.4790 C   0  0  0  0  0  0  0  0  0  0  0  0
    5.4060   -1.8249   -1.4952 C   0  0  0  0  0  0  0  0  0  0  0  0
    5.7737   -2.1790   -2.9376 C   0  0  0  0  0  0  0  0  0  0  0  0
    7.1035   -2.9354   -2.9538 C   0  0  0  0  0  0  0  0  0  0  0  0
    7.4712   -3.2896   -4.3961 C   0  0  0  0  0  0  0  0  0  0  0  0
    8.8011   -4.0459   -4.4124 C   0  0  0  0  0  0  0  0  0  0  0  0
    9.1688   -4.4001   -5.8547 C   0  0  0  0  0  0  0  0  0  0  0  0
   10.4986   -5.1565   -5.8709 C   0  0  0  0  0  0  0  0  0  0  0  0
   10.8663   -5.5106   -7.3133 C   0  0  0  0  0  0  0  0  0  0  0  0
   12.1962   -6.2670   -7.3295 C   0  0  0  0  0  0  0  0  0  0  0  0
   12.5639   -6.6211   -8.7718 C   0  0  0  0  0  0  0  0  0  0  0  0
   13.8938   -7.3775   -8.7881 C   0  0  0  0  0  0  0  0  0  0  0  0
   14.2615   -7.7317  -10.2304 C   0  0  0  0  0  0  0  0  0  0  0  0
   15.5913   -8.4880  -10.2466 C   0  0  0  0  0  0  0  0  0  0  0  0
   -2.6898    5.1768    0.8969 C   0  0  0  0  0  0  0  0  0  0  0  0
   -3.8936    5.8502    0.9007 C   0  0  0  0  0  0  0  0  0  0  0  0
   -2.5024    4.0930    0.0361 C   0  0  0  0  0  0  0  0  0  0  0  0
   -4.9143    5.4540    0.0546 C   0  0  0  0  0  0  0  0  0  0  0  0
   -3.5369    3.6989   -0.8154 C   0  0  0  0  0  0  0  0  0  0  0  0
   -4.7354    4.3814   -0.8011 C   0  0  0  0  0  0  0  0  0  0  0  0
   -6.2268    6.1944    0.0649 C   0  0  0  0  0  0  0  0  0  0  0  0
    1.1958    3.8498    0.8942 H   0  0  0  0  0  0  0  0  0  0  0  0
    1.2252   -2.1811   -0.0209 C   0  0  0  0  0  0  0  0  0  0  0  0
  1  2  1  0      
  1  3  2  0      
  2  4  2  0      
  3  5  1  0      
  4  6  1  0      
  5  6  2  0      
  3  7  1  0      
  8  9  2  0      
  1  8  1  0      
  6 10  1  0      
 10 11  1  0      
 11 12  1  0      
 12 13  1  0      
 13 14  1  0      
 14 15  1  0      
 15 16  1  0      
 16 17  1  0      
 17 18  1  0      
 18 19  1  0      
 19 20  1  0      
 20 21  1  0      
 21 22  1  0      
 22 23  1  0      
 23 24  1  0      
 25 26  1  0      
 25 27  2  0      
 26 28  2  0      
 27 29  1  0      
 28 30  1  0      
 29 30  2  0      
  9 27  1  0      
 28 31  1  0      
  7 32  1  0      
  4 33  1  0      
M  END
$$$$
