Nap-1_5-DiPy.mol
  corina  02261503473D 1   1.00000     0.00000 
CORINA 3.49 0023  12.04.2013
 36 39  0  0  0  0  0  0  0  0999 V2000
   -0.0167    1.3798    0.0096 C   0  0  0  0  0  0  0  0  0  0  0  0
    0.0021   -0.0041    0.0020 C   0  0  0  0  0  0  0  0  0  0  0  0
   -0.9289   -0.5514    0.0080 H   0  0  0  0  0  0  0  0  0  0  0  0
    1.2070   -0.6964   -0.0137 C   0  0  0  0  0  0  0  0  0  0  0  0
    1.1989   -1.7764   -0.0201 H   0  0  0  0  0  0  0  0  0  0  0  0
    1.2349    3.4915    0.0085 C   0  0  0  0  0  0  0  0  0  0  0  0
    0.3095    4.0483    0.0199 H   0  0  0  0  0  0  0  0  0  0  0  0
    1.2084    2.0894    0.0017 C   0  0  0  0  0  0  0  0  0  0  0  0
   -3.6852    3.4609    0.0387 N   0  0  0  0  0  0  0  0  0  0  0  0
   -3.4993    2.5053   -0.8519 C   0  0  0  0  0  0  0  0  0  0  0  0
   -4.2851    2.2726   -1.5553 H   0  0  0  0  0  0  0  0  0  0  0  0
   -2.3151    1.7994   -0.8966 C   0  0  0  0  0  0  0  0  0  0  0  0
   -2.1695    1.0189   -1.6287 H   0  0  0  0  0  0  0  0  0  0  0  0
   -1.3048    2.1106    0.0197 C   0  0  0  0  0  0  0  0  0  0  0  0
   -1.5450    3.1310    0.9462 C   0  0  0  0  0  0  0  0  0  0  0  0
   -0.7912    3.4025    1.6703 H   0  0  0  0  0  0  0  0  0  0  0  0
   -2.7590    3.7856    0.9205 C   0  0  0  0  0  0  0  0  0  0  0  0
   -2.9538    4.5747    1.6317 H   0  0  0  0  0  0  0  0  0  0  0  0
    3.6506    2.0765   -0.0215 C   0  0  0  0  0  0  0  0  0  0  0  0
    3.6320    3.4603   -0.0139 C   0  0  0  0  0  0  0  0  0  0  0  0
    4.5630    4.0076   -0.0202 H   0  0  0  0  0  0  0  0  0  0  0  0
    2.4270    4.1528    0.0003 C   0  0  0  0  0  0  0  0  0  0  0  0
    2.4352    5.2327    0.0056 H   0  0  0  0  0  0  0  0  0  0  0  0
    2.3991   -0.0350   -0.0215 C   0  0  0  0  0  0  0  0  0  0  0  0
    3.3245   -0.5917   -0.0337 H   0  0  0  0  0  0  0  0  0  0  0  0
    2.4253    1.3671   -0.0137 C   0  0  0  0  0  0  0  0  0  0  0  0
    7.3186   -0.0051   -0.0657 N   0  0  0  0  0  0  0  0  0  0  0  0
    7.1207    0.9601   -0.9432 C   0  0  0  0  0  0  0  0  0  0  0  0
    7.8967    1.2003   -1.6549 H   0  0  0  0  0  0  0  0  0  0  0  0
    5.9361    1.6665   -0.9639 C   0  0  0  0  0  0  0  0  0  0  0  0
    5.7806    2.4549   -1.6855 H   0  0  0  0  0  0  0  0  0  0  0  0
    4.9385    1.3455   -0.0371 C   0  0  0  0  0  0  0  0  0  0  0  0
    5.1913    0.3151    0.8748 C   0  0  0  0  0  0  0  0  0  0  0  0
    4.4475    0.0359    1.6064 H   0  0  0  0  0  0  0  0  0  0  0  0
    6.4046   -0.3392    0.8253 C   0  0  0  0  0  0  0  0  0  0  0  0
    6.6091   -1.1360    1.5252 H   0  0  0  0  0  0  0  0  0  0  0  0
  1  2  1  0   
  1  8  2  0   
  1 14  1  0   
  2  3  1  0   
  2  4  2  0   
  4  5  1  0   
  4 24  1  0   
  6  7  1  0   
  6  8  1  0   
  6 22  2  0   
  8 26  1  0   
  9 10  1  0   
  9 17  2  0   
 10 11  1  0   
 10 12  2  0   
 12 13  1  0   
 12 14  1  0   
 14 15  2  0   
 15 16  1  0   
 15 17  1  0   
 17 18  1  0   
 19 20  2  0   
 19 26  1  0   
 19 32  1  0   
 20 21  1  0   
 20 22  1  0   
 22 23  1  0   
 24 25  1  0   
 24 26  2  0   
 27 28  1  0   
 27 35  2  0   
 28 29  1  0   
 28 30  2  0   
 30 31  1  0   
 30 32  1  0   
 32 33  2  0   
 33 34  1  0   
 33 35  1  0   
 35 36  1  0   
M  END
$$$$
