Nap-1_5-DiPy.mol
  ChemDraw02121520173D

 36 39  0  0  0  0  0  0  0  0999 V2000
   -2.1921    1.2442   -0.0792 C   0  0  0  0  0  0  0  0  0  0  0  0
   -2.8113    0.7257   -1.7275 C   0  0  0  0  0  0  0  0  0  0  0  0
   -3.9469    1.1351   -2.1258 H   0  0  0  0  0  0  0  0  0  0  0  0
   -1.7906   -0.4047   -2.8415 C   0  0  0  0  0  0  0  0  0  0  0  0
   -2.2373   -0.7321   -3.9861 H   0  0  0  0  0  0  0  0  0  0  0  0
    0.1644    1.0323    2.2885 C   0  0  0  0  0  0  0  0  0  0  0  0
   -0.5224    1.7708    3.0622 H   0  0  0  0  0  0  0  0  0  0  0  0
   -0.5117    0.5871    0.5563 C   0  0  0  0  0  0  0  0  0  0  0  0
   -5.4507    5.0057    2.8438 N   0  0  0  0  0  0  0  0  0  0  0  0
   -6.0562    3.3934    2.3480 C   0  0  0  0  0  0  0  0  0  0  0  0
   -7.2590    3.0987    2.6307 H   0  0  0  0  0  0  0  0  0  0  0  0
   -5.0462    2.1325    1.4521 C   0  0  0  0  0  0  0  0  0  0  0  0
   -5.5498    1.0053    1.1476 H   0  0  0  0  0  0  0  0  0  0  0  0
   -3.2853    2.5267    0.9993 C   0  0  0  0  0  0  0  0  0  0  0  0
   -2.6366    4.1980    1.5168 C   0  0  0  0  0  0  0  0  0  0  0  0
   -1.4393    4.5301    1.2525 H   0  0  0  0  0  0  0  0  0  0  0  0
   -3.7524    5.3713    2.4205 C   0  0  0  0  0  0  0  0  0  0  0  0
   -3.2821    6.5025    2.7599 H   0  0  0  0  0  0  0  0  0  0  0  0
    2.1921   -1.2442    0.0793 C   0  0  0  0  0  0  0  0  0  0  0  0
    2.8114   -0.7257    1.7276 C   0  0  0  0  0  0  0  0  0  0  0  0
    3.9470   -1.1351    2.1259 H   0  0  0  0  0  0  0  0  0  0  0  0
    1.7908    0.4047    2.8417 C   0  0  0  0  0  0  0  0  0  0  0  0
    2.2373    0.7321    3.9861 H   0  0  0  0  0  0  0  0  0  0  0  0
   -0.1644   -1.0323   -2.2883 C   0  0  0  0  0  0  0  0  0  0  0  0
    0.5224   -1.7708   -3.0620 H   0  0  0  0  0  0  0  0  0  0  0  0
    0.5119   -0.5871   -0.5562 C   0  0  0  0  0  0  0  0  0  0  0  0
    5.4508   -5.0057   -2.8437 N   0  0  0  0  0  0  0  0  0  0  0  0
    6.0563   -3.3934   -2.3480 C   0  0  0  0  0  0  0  0  0  0  0  0
    7.2590   -3.0987   -2.6305 H   0  0  0  0  0  0  0  0  0  0  0  0
    5.0462   -2.1325   -1.4520 C   0  0  0  0  0  0  0  0  0  0  0  0
    5.5499   -1.0053   -1.1475 H   0  0  0  0  0  0  0  0  0  0  0  0
    3.2854   -2.5267   -0.9991 C   0  0  0  0  0  0  0  0  0  0  0  0
    2.6366   -4.1980   -1.5166 C   0  0  0  0  0  0  0  0  0  0  0  0
    1.4393   -4.5301   -1.2524 H   0  0  0  0  0  0  0  0  0  0  0  0
    3.7524   -5.3713   -2.4204 C   0  0  0  0  0  0  0  0  0  0  0  0
    3.2822   -6.5025   -2.7598 H   0  0  0  0  0  0  0  0  0  0  0  0
  1  2  1  0   
  1  8  2  0   
  1 14  1  0   
  2  3  1  0   
  2  4  2  0   
  4  5  1  0   
  4 24  1  0   
  6  7  1  0   
  6  8  1  0   
  6 22  2  0   
  8 26  1  0   
  9 10  1  0   
  9 17  2  0   
 10 11  1  0   
 10 12  2  0   
 12 13  1  0   
 12 14  1  0   
 14 15  2  0   
 15 16  1  0   
 15 17  1  0   
 17 18  1  0   
 19 20  2  0   
 19 26  1  0   
 19 32  1  0   
 20 21  1  0   
 20 22  1  0   
 22 23  1  0   
 24 25  1  0   
 24 26  2  0   
 27 28  1  0   
 27 35  2  0   
 28 29  1  0   
 28 30  2  0   
 30 31  1  0   
 30 32  1  0   
 32 33  2  0   
 33 34  1  0   
 33 35  1  0   
 35 36  1  0   
M  END
