Molbank52659.mol
  corina  07041408363D 1   1.00000     0.00000 
CORINA 3.49 0023  12.04.2013
 27 29  0  0  0  0  0  0  0  0999 V2000
   -0.0167    1.3781    0.0096 C   0  0  0  0  0  0  0  0  0  0  0  0
    0.0021   -0.0041    0.0020 C   0  0  0  0  0  0  0  0  0  0  0  0
    1.2084   -0.6789   -0.0132 C   0  0  0  0  0  0  0  0  0  0  0  0
    2.3960    0.0285   -0.0212 C   0  0  0  0  0  0  0  0  0  0  0  0
    2.3773    1.4107   -0.0145 C   0  0  0  0  0  0  0  0  0  0  0  0
    1.1710    2.0855    0.0021 C   0  0  0  0  0  0  0  0  0  0  0  0
    3.6720    2.1819   -0.0228 C   0  0  0  0  0  0  0  0  0  0  0  0
    4.0752    2.4361   -1.3943 O   0  0  0  0  0  0  0  0  0  0  0  0
    5.2203    3.1199   -1.5781 C   0  0  0  0  0  0  0  0  0  0  0  0
    5.6515    3.3894   -2.8263 N   0  0  0  0  0  0  0  0  0  0  0  0
    6.8975    4.1335   -3.0262 C   0  0  0  0  0  0  0  0  0  0  0  0
    7.1518    4.3001   -4.5022 C   0  0  0  0  0  0  0  0  0  0  0  0
    8.2488    4.9578   -4.9270 N   0  0  0  0  0  0  0  0  0  0  0  0
    5.8651    3.4942   -0.6185 O   0  0  0  0  0  0  0  0  0  0  0  0
    6.3693    3.8423   -5.3078 O   0  0  0  0  0  0  0  0  0  0  0  0
    8.4961    5.1197   -6.3618 C   0  0  0  0  0  0  0  0  0  0  0  0
    9.7778    5.8851   -6.5675 C   0  0  0  0  0  0  0  0  0  0  0  0
   10.2090    6.1546   -7.8157 N   0  0  0  0  0  0  0  0  0  0  0  0
   10.4190    6.2573   -5.6134 O   0  0  0  0  0  0  0  0  0  0  0  0
   11.3558    6.8412   -8.1635 C   0  0  0  0  0  0  0  0  0  0  0  0
   11.3808    6.8698   -9.5678 C   0  0  0  0  0  0  0  0  0  0  0  0
   10.2785    6.2174  -10.0107 N   0  0  0  0  0  0  0  0  0  0  0  0
    9.5843    5.7876   -9.0168 N   0  0  0  0  0  0  0  0  0  0  0  0
   12.3775    7.4420   -7.4398 C   0  0  0  0  0  0  0  0  0  0  0  0
   13.4115    8.0636   -8.1054 C   0  0  0  0  0  0  0  0  0  0  0  0
   13.4373    8.0925   -9.4932 C   0  0  0  0  0  0  0  0  0  0  0  0
   12.4419    7.5078  -10.2213 C   0  0  0  0  0  0  0  0  0  0  0  0
  1  2  2  0      
  2  3  1  0      
  3  4  2  0      
  4  5  1  0      
  5  6  2  0      
  6  1  1  0      
  5  7  1  0      
  7  8  1  0      
  8  9  1  0      
  9 10  1  0      
 10 11  1  0      
 11 12  1  0      
 12 13  1  0      
  9 14  2  0      
 12 15  2  0      
 13 16  1  0      
 16 17  1  0      
 17 18  1  0      
 17 19  2  0      
 18 20  1  0      
 20 21  2  0      
 21 22  1  0      
 22 23  2  0      
 23 18  1  0      
 20 24  1  0      
 24 25  2  0      
 25 26  1  0      
 26 27  2  0      
 27 21  1  0      
M  END
$$$$
