
  corina  12080917083D 1   1.00000     0.00000 
CORINA 3.46 0026  05.08.2008
 17 18  0  0  0  0  0  0  0  0999 V2000
   -0.0189    1.5389    0.0105 C   0  0  3  0  0  0  0  0  0  0  0  0
    0.0021   -0.0041    0.0020 C   0  0  0  0  0  0  0  0  0  0  0  0
   -0.6352   -0.4020    1.3550 C   0  0  0  0  0  0  0  0  0  0  0  0
   -0.4497    0.8883    2.1932 C   0  0  3  0  0  0  0  0  0  0  0  0
   -0.6616    1.9452    1.2336 O   0  0  0  0  0  0  0  0  0  0  0  0
    1.9637    2.5729   -1.0751 C   0  0  0  0  0  0  0  0  0  0  0  0
    1.3898    2.0507   -0.0002 C   0  0  0  0  0  0  0  0  0  0  0  0
   -0.8238    2.0273   -1.1557 C   0  0  0  0  0  0  0  0  0  0  0  0
   -0.2738    2.5512   -2.2472 C   0  0  0  0  0  0  0  0  0  0  0  0
    1.1967    2.6787   -2.3293 C   0  0  0  0  0  0  0  0  0  0  0  0
    1.7543    2.8644   -3.3947 O   0  0  0  0  0  0  0  0  0  0  0  0
   -1.0568    2.9655   -3.2786 O   0  0  0  0  0  0  0  0  0  0  0  0
   -2.4688    2.8089   -3.1247 C   0  0  0  0  0  0  0  0  0  0  0  0
   -1.4913    0.9589    3.3116 C   0  0  3  0  0  0  0  0  0  0  0  0
   -1.3366   -0.2550    4.2300 C   0  0  0  0  0  0  0  0  0  0  0  0
   -1.2844    2.2406    4.1211 C   0  0  0  0  0  0  0  0  0  0  0  0
   -2.8947    0.9616    2.7020 C   0  0  0  0  0  0  0  0  0  0  0  0
  1  2  1  0  0  0  0
  8  9  2  0  0  0  0
  7  1  1  0  0  0  0
  9 10  1  0  0  0  0
 10  6  1  0  0  0  0
  6  7  2  0  0  0  0
 10 11  2  0  0  0  0
  1  8  1  0  0  0  0
  9 12  1  0  0  0  0
 12 13  1  0  0  0  0
  2  3  1  0  0  0  0
  4 14  1  0  0  0  0
  3  4  1  0  0  0  0
 14 15  1  0  0  0  0
  4  5  1  0  0  0  0
 14 16  1  0  0  0  0
  5  1  1  0  0  0  0
 14 17  1  0  0  0  0
M  END
$$$$
