m479-1.mol
  corina  12080917093D 1   1.00000     0.00000 
CORINA 3.46 0026  05.08.2008
 22 24  0  0  0  0  0  0  0  0999 V2000
   -0.0168    1.3846    0.0097 C   0  0  0  0  0  0  0  0  0  0  0  0
    0.0021   -0.0041    0.0020 C   0  0  0  0  0  0  0  0  0  0  0  0
    1.1985   -0.6854   -0.0130 C   0  0  0  0  0  0  0  0  0  0  0  0
    2.3948    0.0235   -0.0206 C   0  0  0  0  0  0  0  0  0  0  0  0
    2.3766    1.4292   -0.0129 C   0  0  0  0  0  0  0  0  0  0  0  0
    1.1459    2.0981    0.0024 C   0  0  0  0  0  0  0  0  0  0  0  0
    3.7203   -0.3406   -0.0360 N   0  0  0  0  0  0  0  0  0  0  0  0
    4.4604    0.8511   -0.0371 N   0  0  0  0  0  0  0  0  0  0  0  0
    3.6559    1.8547   -0.0235 N   0  0  0  0  0  0  0  0  0  0  0  0
    4.2547   -1.7046   -0.0487 C   0  0  0  0  0  0  0  0  0  0  0  0
    4.4262   -2.1717   -1.4955 C   0  0  0  0  0  0  0  0  0  0  0  0
    4.9843   -3.5962   -1.5088 C   0  0  0  0  0  0  0  0  0  0  0  0
    5.1558   -4.0633   -2.9556 C   0  0  0  0  0  0  0  0  0  0  0  0
    5.6903   -5.4273   -2.9683 N   0  0  0  0  0  0  0  0  0  0  0  0
    4.9608   -6.5855   -2.9676 C   0  0  0  0  0  0  0  0  0  0  0  0
    5.8437   -7.6021   -2.9877 C   0  0  0  0  0  0  0  0  0  0  0  0
    7.0787   -7.0789   -3.0003 N   0  0  0  0  0  0  0  0  0  0  0  0
    6.9945   -5.7767   -2.9888 C   0  0  0  0  0  0  0  0  0  0  0  0
    3.4849   -6.6988   -2.9477 N   0  3  0  0  0  0  0  0  0  0  0  0
    2.7971   -5.6937   -2.9297 O   0  0  0  0  0  0  0  0  0  0  0  0
    2.9583   -7.7971   -2.9494 O   0  5  0  0  0  0  0  0  0  0  0  0
    8.1598   -4.8212   -2.9974 C   0  0  0  0  0  0  0  0  0  0  0  0
  1  2  2  0  0  0
  2  3  1  0  0  0
  3  4  2  0  0  0
  4  5  1  0  0  0
  5  6  2  0  0  0
  6  1  1  0  0  0
  4  7  1  0  0  0
  7  8  1  0  0  0
  8  9  2  0  0  0
  9  5  1  0  0  0
  7 10  1  0  0  0
 10 11  1  0  0  0
 11 12  1  0  0  0
 12 13  1  0  0  0
 14 15  1  0  0  0
 15 16  2  0  0  0
 16 17  1  0  0  0
 17 18  2  0  0  0
 18 14  1  0  0  0
 15 19  1  0  0  0
 19 20  2  0  0  0
 19 21  1  0  0  0
 18 22  1  0  0  0
 13 14  1  0  0  0
M  END
$$$$
