
  corina  02131209563D 1   1.00000     0.00000 
CORINA 3.49 0024  01.06.2011
 38 42  0  0  0  0  0  0  0  0  2 V2000
    1.7505   -1.5580    3.2689 C   0  0  0  0  0  0  0  0  0  0  0  0
    1.1286   -1.8152    2.0957 N   0  0  0  0  0  0  0  0  0  0  0  0
    3.1307   -0.9936    3.2303 C   0  0  0  0  0  0  0  0  0  0  0  0
    1.8049   -1.5415    0.8984 N   0  0  0  0  0  0  0  0  0  0  0  0
    3.7003   -0.7635    2.0686 N   0  0  0  0  0  0  0  0  0  0  0  0
    3.0606   -1.0284    0.9168 C   0  0  0  0  0  0  0  0  0  0  0  0
    3.8481   -0.6967    4.4823 C   0  0  0  0  0  0  0  0  0  0  0  0
    1.1970   -1.7764    4.3273 O   0  0  0  0  0  0  0  0  0  0  0  0
    1.2024   -1.7908   -0.2811 C   0  0  0  0  0  0  0  0  0  0  0  0
    1.7368   -1.4547   -1.3192 O   0  0  0  0  0  0  0  0  0  0  0  0
    3.7376   -0.7552   -0.3536 C   0  0  0  0  0  0  0  0  0  0  0  0
    4.0792    0.5620   -0.7039 C   0  0  0  0  0  0  0  0  0  0  0  0
    4.0546   -1.8092   -1.2270 C   0  0  0  0  0  0  0  0  0  0  0  0
    4.7201    0.8076   -1.8971 C   0  0  0  0  0  0  0  0  0  0  0  0
    4.6956   -1.5427   -2.4156 C   0  0  0  0  0  0  0  0  0  0  0  0
    5.0285   -0.2395   -2.7521 C   0  0  0  0  0  0  0  0  0  0  0  0
   -0.1079   -2.4727   -0.3118 C   0  0  0  0  0  0  0  0  0  0  0  0
   -0.1721   -3.8664   -0.3685 C   0  0  0  0  0  0  0  0  0  0  0  0
   -1.2878   -1.7265   -0.2783 C   0  0  0  0  0  0  0  0  0  0  0  0
   -1.3988   -4.4968   -0.3911 C   0  0  0  0  0  0  0  0  0  0  0  0
   -2.5077   -2.3698   -0.3015 C   0  0  0  0  0  0  0  0  0  0  0  0
   -2.5640   -3.7513   -0.3582 C   0  0  0  0  0  0  0  0  0  0  0  0
   -3.8767   -4.4346   -0.3837 N   0  3  0  0  0  0  0  0  0  0  0  0
   -3.9338   -5.7493   -0.4376 O   0  5  0  0  0  0  0  0  0  0  0  0
   -4.9877   -3.7280   -0.3525 O   0  0  0  0  0  0  0  0  0  0  0  0
    5.1318   -0.1718    4.4385 C   0  0  0  0  0  0  0  0  0  0  0  0
    6.2756   -0.6686    3.6650 C   0  0  0  0  0  0  0  0  0  0  0  0
    5.6436    1.0098    5.1534 C   0  0  0  0  0  0  0  0  0  0  0  0
    7.2941    0.1559    3.9336 N   0  0  0  0  0  0  0  0  0  0  0  0
    6.8911    1.1497    4.8249 N   0  0  0  0  0  0  0  0  0  0  0  0
    4.8627    1.8933    6.0919 C   0  0  0  0  0  0  0  0  0  0  0  0
    6.3020   -2.0496    2.6133 Cl  0  0  0  0  0  0  0  0  0  0  0  0
    8.5817    0.0379    3.3962 C   0  0  0  0  0  0  0  0  0  0  0  0
    9.3206    1.1769    3.1029 C   0  0  0  0  0  0  0  0  0  0  0  0
    9.1251   -1.2185    3.1607 C   0  0  0  0  0  0  0  0  0  0  0  0
   10.5924    1.0570    2.5784 C   0  0  0  0  0  0  0  0  0  0  0  0
   10.3975   -1.3315    2.6360 C   0  0  0  0  0  0  0  0  0  0  0  0
   11.1306   -0.1954    2.3450 C   0  0  0  0  0  0  0  0  0  0  0  0
  2  1  1  0  0  0  0
  3  1  1  0  0  0  0
  4  2  1  0  0  0  0
  5  3  1  0  0  0  0
  6  4  1  0  0  0  0
  6  5  2  0  0  0  0
  3  7  2  0  0  0  0
  1  8  2  0  0  0  0
  4  9  1  0  0  0  0
  9 10  2  0  0  0  0
 12 11  1  0  0  0  0
 13 11  2  0  0  0  0
 14 12  2  0  0  0  0
 15 13  1  0  0  0  0
 16 14  1  0  0  0  0
 16 15  2  0  0  0  0
  6 11  1  0  0  0  0
 18 17  1  0  0  0  0
 19 17  2  0  0  0  0
 20 18  2  0  0  0  0
 21 19  1  0  0  0  0
 22 20  1  0  0  0  0
 22 21  2  0  0  0  0
  9 17  1  0  0  0  0
 24 23  1  0  0  0  0
 25 23  2  0  0  0  0
 22 23  1  0  0  0  0
 27 26  2  0  0  0  0
 28 26  1  0  0  0  0
 29 27  1  0  0  0  0
 30 28  2  0  0  0  0
 30 29  1  0  0  0  0
 28 31  1  0  0  0  0
 27 32  1  0  0  0  0
 34 33  1  0  0  0  0
 35 33  2  0  0  0  0
 36 34  2  0  0  0  0
 37 35  1  0  0  0  0
 38 36  1  0  0  0  0
 38 37  2  0  0  0  0
 29 33  1  0  0  0  0
  7 26  1  0  0  0  0
M  CHG  2  23   1  24  -1
M  END
$$$$
