molbank-2013-M800-2.mol
  corina  05161307403D 1   1.00000     0.00000 
CORINA 3.49 0023  12.04.2013
 29 32  0  0  0  0  0  0  0  0999 V2000
   -0.1364    1.5167    0.1193 C   0  0  0  0  0  0  0  0  0  0  0  0
    0.2035    0.0670   -0.1132 C   0  0  0  0  0  0  0  0  0  0  0  0
   -0.2309   -0.7480    1.0777 C   0  0  0  0  0  0  0  0  0  0  0  0
   -0.5102   -0.4249   -1.3459 C   0  0  0  0  0  0  0  0  0  0  0  0
   -1.8804   -0.6072   -1.3248 C   0  0  0  0  0  0  0  0  0  0  0  0
   -2.5351   -1.0584   -2.4556 C   0  0  0  0  0  0  0  0  0  0  0  0
   -1.8197   -1.3270   -3.6076 C   0  0  0  0  0  0  0  0  0  0  0  0
   -0.4497   -1.1438   -3.6289 C   0  0  0  0  0  0  0  0  0  0  0  0
    0.2044   -0.6884   -2.4995 C   0  0  0  0  0  0  0  0  0  0  0  0
   -1.4447   -0.8578    1.5321 N   0  0  0  0  0  0  0  0  0  0  0  0
   -1.4517   -1.6321    2.5594 N   0  0  0  0  0  0  0  0  0  0  0  0
   -0.2307   -2.0470    2.7981 C   0  0  0  0  0  0  0  0  0  0  0  0
    0.5668   -1.4999    1.8614 O   0  0  0  0  0  0  0  0  0  0  0  0
    0.2715   -3.1244    4.0987 S   0  0  0  0  0  0  0  0  0  0  0  0
   -1.3260   -3.4198    4.8967 C   0  0  0  0  0  0  0  0  0  0  0  0
   -1.1370   -4.3431    6.0727 C   0  0  0  0  0  0  0  0  0  0  0  0
   -2.1969   -4.7051    6.8223 N   0  0  0  0  0  0  0  0  0  0  0  0
   -0.0312   -4.7603    6.3445 O   0  0  0  0  0  0  0  0  0  0  0  0
   -2.0087   -5.4722    7.9710 C   0  0  0  0  0  0  0  0  0  0  0  0
   -0.8029   -5.9355    8.2708 N   0  0  0  0  0  0  0  0  0  0  0  0
   -0.6281   -6.6627    9.3610 C   0  0  0  0  0  0  0  0  0  0  0  0
   -1.7000   -6.9409   10.1879 C   0  0  0  0  0  0  0  0  0  0  0  0
   -2.9042   -6.4808    9.8926 N   0  0  0  0  0  0  0  0  0  0  0  0
   -3.0852   -5.7491    8.8094 C   0  0  0  0  0  0  0  0  0  0  0  0
    0.8725    2.4574    0.2085 C   0  0  0  0  0  0  0  0  0  0  0  0
    0.5607    3.7872    0.4218 C   0  0  0  0  0  0  0  0  0  0  0  0
   -0.7600    4.1762    0.5453 C   0  0  0  0  0  0  0  0  0  0  0  0
   -1.7690    3.2355    0.4552 C   0  0  0  0  0  0  0  0  0  0  0  0
   -1.4574    1.9065    0.2375 C   0  0  0  0  0  0  0  0  0  0  0  0
  1  2  1  0      
  2  3  1  0      
  2  4  1  0      
  4  5  2  0      
  5  6  1  0      
  6  7  2  0      
  7  8  1  0      
  8  9  2  0      
  9  4  1  0      
  3 10  2  0      
 10 11  1  0      
 11 12  2  0      
 12 13  1  0      
 13  3  1  0      
 14 15  1  0      
 15 16  1  0      
 16 17  1  0      
 16 18  2  0      
 17 19  1  0      
 19 20  2  0      
 20 21  1  0      
 21 22  2  0      
 22 23  1  0      
 23 24  2  0      
 24 19  1  0      
 14 12  1  0      
  1 25  2  0      
 25 26  1  0      
 26 27  2  0      
 27 28  1  0      
 28 29  2  0      
 29  1  1  0      
M  END
$$$$
