
  corina  12080917093D 1   1.00000     0.00000 
CORINA 3.46 0026  05.08.2008
 10  8  0  0  0  0  0  0  0  0999 V2000
   -0.0069    1.4493    0.0055 N   0  0  3  0  0  0  0  0  0  0  0  0
    0.0612    0.0070    0.2530 C   0  0  0  0  0  0  0  0  0  0  0  0
    1.1708    2.1631   -0.4943 C   0  0  0  0  0  0  0  0  0  0  0  0
   -1.1774    2.1319    0.2370 C   0  0  0  0  0  0  0  0  0  0  0  0
   -2.2260    1.4963    0.6763 N   0  0  0  0  0  0  0  0  0  0  0  0
   -1.2415    3.4900    0.0040 N   0  0  0  0  0  0  0  0  0  0  0  0
   -2.4494    4.1495    0.0973 C   0  0  0  0  0  0  0  0  0  0  0  0
   -3.5456    3.4755    0.2989 N   0  0  0  0  0  0  0  0  0  0  0  0
   -2.4962    5.5181   -0.0223 N   0  0  0  0  0  0  0  0  0  0  0  0
    6.1708   10.5181    5.6763 Cl  0  0  0  0  0  0  0  0  0  0  0  0
  1  2  1  0  0  0  0
  1  3  1  0  0  0  0
  1  4  1  0  0  0  0
  4  5  2  0  0  0  0
  4  6  1  0  0  0  0
  6  7  1  0  0  0  0
  7  8  2  0  0  0  0
  7  9  1  0  0  0  0
M  END
$$$$
