Untitled Document-1
  corina  07101508093D 1   1.00000     0.00000 
CORINA 3.60 0026  08.12.2014
 18 19  0  0  0  0  0  0  0  0999 V2000
   -0.0951    1.3997    0.1682 C   0  0  0  0  0  0  0  0  0  0  0  0
   -0.2226    0.0361   -0.0214 C   0  0  0  0  0  0  0  0  0  0  0  0
    0.9001   -0.7579   -0.1558 C   0  0  0  0  0  0  0  0  0  0  0  0
    2.1628   -0.1838   -0.1007 C   0  0  0  0  0  0  0  0  0  0  0  0
    2.2816    1.1890    0.0899 C   0  0  0  0  0  0  0  0  0  0  0  0
    1.1626    1.9774    0.2240 C   0  0  0  0  0  0  0  0  0  0  0  0
    3.3089   -0.9683   -0.2338 N   0  0  0  0  0  0  0  0  0  0  0  0
    4.5478   -0.4620   -0.1873 C   0  0  0  0  0  0  0  0  0  0  0  0
    4.7996    0.8473   -0.0083 N   0  0  0  0  0  0  0  0  0  0  0  0
    3.6709    1.7811    0.1449 C   0  0  0  0  0  0  0  0  0  0  0  0
    5.4891   -1.2214   -0.3124 O   0  0  0  0  0  0  0  0  0  0  0  0
    6.1792    1.3383    0.0333 C   0  0  0  0  0  0  0  0  0  0  0  0
    6.6425    1.4351    1.4883 C   0  0  0  0  0  0  0  0  0  0  0  0
    6.6880    0.1270    2.0617 O   0  0  0  0  0  0  0  0  0  0  0  0
    3.7789    2.8368   -0.9572 C   0  0  0  0  0  0  0  0  0  0  0  0
    3.7856    2.1779   -2.2656 N   0  3  0  0  0  0  0  0  0  0  0  0
    3.0829    2.6029   -3.1651 O   0  0  0  0  0  0  0  0  0  0  0  0
    4.4937    1.2050   -2.4539 O   0  5  0  0  0  0  0  0  0  0  0  0
 16 17  2  0      
 16 18  1  0      
 15 16  1  0      
  1  2  2  0      
  2  3  1  0      
  3  4  2  0      
  4  5  1  0      
  5  6  2  0      
  6  1  1  0      
  4  7  1  0      
  7  8  1  0      
  8  9  1  0      
  9 10  1  0      
 10  5  1  0      
  8 11  2  0      
  9 12  1  0      
 12 13  1  0      
 13 14  1  0      
 10 15  1  0      
M  CHG  2  16   1  18  -1
M  STY  1   1 SUP
M  SLB  1   1   1
M  SAL   1  3  16  17  18
M  SBL   1  1   3
M  SMT   1 ^NO2
M  SBV   1   3    0.7145   -0.4125
M  END
$$$$
