
  corina  12080917083D 1   1.00000     0.00000 
CORINA 3.46 0026  05.08.2008
 19 21  0  0  0  0  0  0  0  0999 V2000
    0.6345    1.5824   -0.6375 C   0  0  2  0  0  0  0  0  0  0  0  0
    0.7254    0.0597   -0.6568 C   0  0  2  0  0  0  0  0  0  0  0  0
    1.1157   -0.2850   -2.0093 O   0  0  0  0  0  0  0  0  0  0  0  0
    2.1845    0.3728   -2.5154 C   0  0  0  0  0  0  0  0  0  0  0  0
    2.6573    1.4906   -2.0294 C   0  0  0  0  0  0  0  0  0  0  0  0
    2.0358    2.1658   -0.8284 C   0  0  0  0  0  0  0  0  0  0  0  0
   -0.0685    2.1603    0.5892 C   0  0  2  0  0  0  0  0  0  0  0  0
   -1.4357    1.4917    0.6996 C   0  0  3  0  0  0  0  0  0  0  0  0
   -1.2596   -0.0127    0.8895 C   0  0  0  0  0  0  0  0  0  0  0  0
   -0.6330   -0.5842   -0.3880 C   0  0  0  0  0  0  0  0  0  0  0  0
   -1.1004    4.2646    1.4835 C   0  0  0  0  0  0  0  0  0  0  0  0
   -2.4851    3.6247    1.5010 C   0  0  0  0  0  0  0  0  0  0  0  0
   -2.3872    2.1082    1.7023 C   0  0  2  0  0  0  0  0  0  0  0  0
   -0.2697    3.6666    0.3509 C   0  0  0  0  0  0  0  0  0  0  0  0
   -2.0378    1.7871    3.1510 C   0  0  0  0  0  0  0  0  0  0  0  0
   -3.8047    1.5454    1.4362 C   0  0  0  0  0  0  0  0  0  0  0  0
    0.7805    1.9851    1.8420 C   0  0  0  0  0  0  0  0  0  0  0  0
    1.7810   -0.5111    0.2855 C   0  0  0  0  0  0  0  0  0  0  0  0
    2.8738   -0.2226   -3.7179 C   0  0  0  0  0  0  0  0  0  0  0  0
  5  6  1  0  0  0  0
  1  2  1  0  0  0  0
  1  6  1  0  0  0  0
  2  3  1  0  0  0  0
  3  4  1  0  0  0  0
  2 18  1  0  0  0  0
  7  8  1  0  0  0  0
  7  1  1  0  0  0  0
  8  9  1  0  0  0  0
 11 14  1  0  0  0  0
 12 13  1  0  0  0  0
 13  8  1  0  0  0  0
  7 14  1  0  0  0  0
  9 10  1  0  0  0  0
 13 15  1  0  0  0  0
 10  2  1  0  0  0  0
 13 16  1  0  0  0  0
  7 17  1  0  0  0  0
 11 12  1  0  0  0  0
  4  5  2  0  0  0  0
  4 19  1  0  0  0  0
M  END
$$$$
