Molbank.cdx
  corina  11081206143D 1   1.00000     0.00000 
CORINA 3.49 0024  01.06.2011
 41 43  0  0  0  0  0  0  0  0999 V2000
   -0.0179    1.4707    0.0101 C   0  0  0  0  0  0  0  0  0  0  0  0
   -1.0960   -2.2320    0.0005 S   0  0  0  0  0  0  0  0  0  0  0  0
    0.3111   -2.9196   -0.0166 N   0  0  0  0  0  0  0  0  0  0  0  0
    1.3865   -2.1525   -0.0227 C   0  0  0  0  0  0  0  0  0  0  0  0
    1.2815   -0.6999   -0.0134 C   0  0  0  0  0  0  0  0  0  0  0  0
    0.0021   -0.0041    0.0020 C   0  0  0  0  0  0  0  0  0  0  0  0
   -1.1408   -0.6665    0.0093 N   0  0  0  0  0  0  0  0  0  0  0  0
    2.3083   -0.0382   -0.0196 O   0  0  0  0  0  0  0  0  0  0  0  0
    2.7211   -2.7801   -0.0382 C   0  0  0  0  0  0  0  0  0  0  0  0
    1.4040    2.5060    0.0021 S   0  0  0  0  0  0  0  0  0  0  0  0
    0.3943    3.9457    0.0184 C   0  0  0  0  0  0  0  0  0  0  0  0
   -0.8955    3.5934    0.0285 C   0  0  0  0  0  0  0  0  0  0  0  0
   -1.1304    2.2353    0.0190 C   0  0  0  0  0  0  0  0  0  0  0  0
   -2.0107    4.6070    0.0436 C   0  0  0  0  0  0  0  0  0  0  0  0
    2.9577   -4.1091   -0.0471 C   0  0  0  0  0  0  0  0  0  0  0  0
    4.2915   -4.4564   -0.0621 C   0  0  0  0  0  0  0  0  0  0  0  0
    5.1451   -3.4273   -0.0654 C   0  0  0  0  0  0  0  0  0  0  0  0
    4.2513   -1.9129   -0.0557 S   0  0  0  0  0  0  0  0  0  0  0  0
    4.7536   -5.8907   -0.0732 C   0  0  0  0  0  0  0  0  0  0  0  0
    4.8956   -6.3695   -1.5194 C   0  0  0  0  0  0  0  0  0  0  0  0
    5.3649   -7.8258   -1.5308 C   0  0  0  0  0  0  0  0  0  0  0  0
    5.5069   -8.3046   -2.9770 C   0  0  0  0  0  0  0  0  0  0  0  0
    5.9761   -9.7608   -2.9884 C   0  0  0  0  0  0  0  0  0  0  0  0
    6.1181  -10.2396   -4.4346 C   0  0  0  0  0  0  0  0  0  0  0  0
    6.5874  -11.6958   -4.4459 C   0  0  0  0  0  0  0  0  0  0  0  0
    6.7294  -12.1746   -5.8921 C   0  0  0  0  0  0  0  0  0  0  0  0
    7.1986  -13.6308   -5.9035 C   0  0  0  0  0  0  0  0  0  0  0  0
    7.3406  -14.1096   -7.3497 C   0  0  0  0  0  0  0  0  0  0  0  0
    7.8099  -15.5658   -7.3611 C   0  0  0  0  0  0  0  0  0  0  0  0
    7.9519  -16.0446   -8.8073 C   0  0  0  0  0  0  0  0  0  0  0  0
   -2.4017    4.9565   -1.3937 C   0  0  0  0  0  0  0  0  0  0  0  0
   -3.5339    5.9856   -1.3783 C   0  0  0  0  0  0  0  0  0  0  0  0
   -3.9249    6.3351   -2.8156 C   0  0  0  0  0  0  0  0  0  0  0  0
   -5.0570    7.3641   -2.8002 C   0  0  0  0  0  0  0  0  0  0  0  0
   -5.4481    7.7137   -4.2375 C   0  0  0  0  0  0  0  0  0  0  0  0
   -6.5802    8.7427   -4.2221 C   0  0  0  0  0  0  0  0  0  0  0  0
   -6.9713    9.0923   -5.6594 C   0  0  0  0  0  0  0  0  0  0  0  0
   -8.1034   10.1213   -5.6440 C   0  0  0  0  0  0  0  0  0  0  0  0
   -8.4945   10.4709   -7.0813 C   0  0  0  0  0  0  0  0  0  0  0  0
   -9.6266   11.4999   -7.0659 C   0  0  0  0  0  0  0  0  0  0  0  0
  -10.0176   11.8494   -8.5032 C   0  0  0  0  0  0  0  0  0  0  0  0
  2  3  1  0      
  3  4  2  0      
  4  5  1  0      
  5  6  1  0      
  6  7  2  0      
  2  7  1  0      
  5  8  2  0      
  4  9  1  0      
  1  6  1  0      
  1 10  1  0      
 10 11  1  0      
 11 12  2  0      
 12 13  1  0      
 13  1  2  0      
 12 14  1  0      
  9 15  2  0      
 15 16  1  0      
 16 17  2  0      
 17 18  1  0      
 18  9  1  0      
 16 19  1  0      
 19 20  1  0      
 20 21  1  0      
 21 22  1  0      
 22 23  1  0      
 23 24  1  0      
 24 25  1  0      
 25 26  1  0      
 26 27  1  0      
 27 28  1  0      
 28 29  1  0      
 29 30  1  0      
 14 31  1  0      
 31 32  1  0      
 32 33  1  0      
 33 34  1  0      
 34 35  1  0      
 35 36  1  0      
 36 37  1  0      
 37 38  1  0      
 38 39  1  0      
 39 40  1  0      
 40 41  1  0      
M  END
$$$$
