
  corina  07041205503D 1   1.00000     0.00000 
CORINA 3.49 0024  01.06.2011
 45 50  0  0  0  0  0  0  0  0  1 V2000
    1.2718    1.3451    1.3652 C   0  0  0  0  0  0  0  0  0  0  0  0
   -9.2936  -12.0584   -1.2802 C   0  0  0  0  0  0  0  0  0  0  0  0
   -8.4906  -13.2020   -1.1307 C   0  0  0  0  0  0  0  0  0  0  0  0
  -10.6711  -12.2047   -1.4614 C   0  0  0  0  0  0  0  0  0  0  0  0
   -9.0708  -14.4624   -1.1646 C   0  0  0  0  0  0  0  0  0  0  0  0
  -11.2249  -13.4534   -1.4917 C   0  0  0  0  0  0  0  0  0  0  0  0
  -10.4325  -14.5827   -1.3450 C   0  0  0  0  0  0  0  0  0  0  0  0
   -8.4670  -10.9832   -1.2122 N   0  0  0  0  0  0  0  0  0  0  0  0
   -7.1985  -12.7421   -0.9723 N   0  0  0  0  0  0  0  0  0  0  0  0
   -7.2419  -11.3839   -1.0353 C   0  0  0  0  0  0  0  0  0  0  0  0
   -6.0458  -10.4754   -0.9123 C   0  0  0  0  0  0  0  0  0  0  0  0
   -4.8672  -11.2620   -0.7275 O   0  0  0  0  0  0  0  0  0  0  0  0
   -3.6928  -10.5922   -0.5982 C   0  0  0  0  0  0  0  0  0  0  0  0
   -2.5049  -11.3002   -0.4151 C   0  0  0  0  0  0  0  0  0  0  0  0
   -3.6775   -9.2050   -0.6545 C   0  0  0  0  0  0  0  0  0  0  0  0
   -1.3091  -10.6222   -0.2892 C   0  0  0  0  0  0  0  0  0  0  0  0
   -2.4887   -8.5199   -0.5298 C   0  0  0  0  0  0  0  0  0  0  0  0
   -1.2924   -9.2230   -0.3458 C   0  0  0  0  0  0  0  0  0  0  0  0
   -0.0232   -8.4953   -0.2120 C   0  0  0  0  0  0  0  0  0  0  0  0
   -2.5249  -12.6589   -0.3603 O   0  0  0  0  0  0  0  0  0  0  0  0
    1.2610   -0.6841    0.0822 C   0  0  0  0  0  0  0  0  0  0  0  0
    1.2735   -0.0334    1.3152 C   0  0  0  0  0  0  0  0  0  0  0  0
    1.2468    0.0625   -1.0952 C   0  0  0  0  0  0  0  0  0  0  0  0
    1.2447    1.4406   -1.0355 C   0  0  0  0  0  0  0  0  0  0  0  0
    1.2577    2.0831    0.1923 C   0  0  0  0  0  0  0  0  0  0  0  0
    1.2633   -2.1656    0.0232 C   0  0  0  0  0  0  0  0  0  0  0  0
    1.2780   -2.9074    1.2039 C   0  0  0  0  0  0  0  0  0  0  0  0
    1.2449   -2.8109   -1.2119 C   0  0  0  0  0  0  0  0  0  0  0  0
    1.2749   -4.2896    1.1579 C   0  0  0  0  0  0  0  0  0  0  0  0
    1.2412   -4.1976   -1.2716 C   0  0  0  0  0  0  0  0  0  0  0  0
    1.2565   -4.9491   -0.0800 C   0  0  0  0  0  0  0  0  0  0  0  0
    1.2211   -4.8852   -2.5839 C   0  0  0  0  0  0  0  0  0  0  0  0
    0.2071   -4.6117   -3.5015 C   0  0  0  0  0  0  0  0  0  0  0  0
    2.2194   -5.8037   -2.9077 C   0  0  0  0  0  0  0  0  0  0  0  0
    0.1959   -5.2501   -4.7241 C   0  0  0  0  0  0  0  0  0  0  0  0
    2.1997   -6.4370   -4.1328 C   0  0  0  0  0  0  0  0  0  0  0  0
    1.1898   -6.1623   -5.0412 C   0  0  0  0  0  0  0  0  0  0  0  0
    1.2902   -5.0073    2.3094 O   0  0  0  0  0  0  0  0  0  0  0  0
    1.2536   -6.4207   -0.1338 C   0  0  0  0  0  0  0  0  0  0  0  0
   -0.0094   -7.1449   -0.2669 C   0  0  0  0  0  0  0  0  0  0  0  0
    2.3039   -7.0348   -0.0673 O   0  0  0  0  0  0  0  0  0  0  0  0
    1.2561    3.4330    0.2460 F   0  0  0  0  0  0  0  0  0  0  0  0
    1.1741   -6.7858   -6.2396 F   0  0  0  0  0  0  0  0  0  0  0  0
    1.3090   -4.2698    3.5332 C   0  0  0  0  0  0  0  0  0  0  0  0
   -1.2718  -13.3191   -0.1708 C   0  0  0  0  0  0  0  0  0  0  0  0
  3  2  1  0  0  0  0
  4  2  2  0  0  0  0
  5  3  2  0  0  0  0
  6  4  1  0  0  0  0
  7  5  1  0  0  0  0
  7  6  2  0  0  0  0
  2  8  1  0  0  0  0
  3  9  1  0  0  0  0
  8 10  2  0  0  0  0
 10  9  1  0  0  0  0
 10 11  1  0  0  0  0
 11 12  1  0  0  0  0
 14 13  1  0  0  0  0
 15 13  2  0  0  0  0
 16 14  2  0  0  0  0
 17 15  1  0  0  0  0
 18 16  1  0  0  0  0
 18 17  2  0  0  0  0
 12 13  1  0  0  0  0
 18 19  1  0  0  0  0
 14 20  1  0  0  0  0
 22 21  1  0  0  0  0
 23 21  2  0  0  0  0
  1 22  2  0  0  0  0
 24 23  1  0  0  0  0
 25  1  1  0  0  0  0
 25 24  2  0  0  0  0
 27 26  1  0  0  0  0
 28 26  2  0  0  0  0
 29 27  2  0  0  0  0
 30 28  1  0  0  0  0
 31 29  1  0  0  0  0
 31 30  2  0  0  0  0
 21 26  1  0  0  0  0
 33 32  1  0  0  0  0
 34 32  2  0  0  0  0
 35 33  2  0  0  0  0
 36 34  1  0  0  0  0
 37 35  1  0  0  0  0
 37 36  2  0  0  0  0
 30 32  1  0  0  0  0
 29 38  1  0  0  0  0
 31 39  1  0  0  0  0
 39 40  1  0  0  0  0
 39 41  2  0  0  0  0
 25 42  1  0  0  0  0
 37 43  1  0  0  0  0
 19 40  2  0  0  0  0
 38 44  1  0  0  0  0
 20 45  1  0  0  0  0
M  END
$$$$
