
  corina  12080917093D 1   1.00000     0.00000 
CORINA 3.46 0026  05.08.2008
 20 22  0  0  0  0  0  0  0  0  1 V2000
    0.3953    1.4580    0.1731 C   0  0  0  0  0  0  0  0  0  0  0  0
    0.1846   -0.0260    0.0174 C   0  0  0  0  0  0  0  0  0  0  0  0
    0.4589   -0.7615   -1.0926 C   0  0  0  0  0  0  0  0  0  0  0  0
    0.1346   -2.0453   -0.8228 N   0  0  0  0  0  0  0  0  0  0  0  0
   -0.3221   -0.8924    0.9908 C   0  0  0  0  0  0  0  0  0  0  0  0
   -0.3524   -2.1004    0.4893 N   0  0  0  0  0  0  0  0  0  0  0  0
    0.2684   -3.1792   -1.7408 C   0  0  0  0  0  0  0  0  0  0  0  0
    0.9662   -0.2913   -2.2607 O   0  0  0  0  0  0  0  0  0  0  0  0
    1.8703    1.7637    0.1255 C   0  0  0  0  0  0  0  0  0  0  0  0
    2.8233    1.2395    0.9410 C   0  0  0  0  0  0  0  0  0  0  0  0
    4.0117    1.7670    0.5729 N   0  0  0  0  0  0  0  0  0  0  0  0
    2.5027    2.6323   -0.7692 C   0  0  0  0  0  0  0  0  0  0  0  0
    3.7827    2.6397   -0.4985 N   0  0  0  0  0  0  0  0  0  0  0  0
    5.3102    1.4777    1.1865 C   0  0  0  0  0  0  0  0  0  0  0  0
    2.6182    0.3478    1.9439 O   0  0  0  0  0  0  0  0  0  0  0  0
   -1.8128    1.8857   -0.9149 C   0  0  0  0  0  0  0  0  0  0  0  0
   -0.3154    2.1961   -0.9632 C   0  0  0  0  0  0  0  0  0  0  0  0
   -2.3856    2.3440    0.4278 C   0  0  0  0  0  0  0  0  0  0  0  0
   -1.6748    1.6060    1.5641 C   0  0  0  0  0  0  0  0  0  0  0  0
   -0.1774    1.9164    1.5158 C   0  0  0  0  0  0  0  0  0  0  0  0
  4  3  1  0  0  0  0
  5  2  1  0  0  0  0
  6  4  1  0  0  0  0
  6  5  2  0  0  0  0
  4  7  1  0  0  0  0
  3  2  2  0  0  0  0
  2  1  1  0  0  0  0
  3  8  1  0  0  0  0
  9  1  1  0  0  0  0
 11 10  1  0  0  0  0
 12  9  1  0  0  0  0
 13 11  1  0  0  0  0
 13 12  2  0  0  0  0
 11 14  1  0  0  0  0
 10  9  2  0  0  0  0
 10 15  1  0  0  0  0
 17 16  1  0  0  0  0
 18 16  1  0  0  0  0
  1 17  1  0  0  0  0
 19 18  1  0  0  0  0
 20  1  1  0  0  0  0
 20 19  1  0  0  0  0
M  END
$$$$
