m390.cdx
  corina  12080917083D 1   1.00000     0.00000 
CORINA 3.46 0026  05.08.2008
 21 23  0  0  0  0  0  0  0  0999 V2000
   -0.0158    1.3105    0.0092 C   0  0  0  0  0  0  0  0  0  0  0  0
    0.0021   -0.0041    0.0020 C   0  0  0  0  0  0  0  0  0  0  0  0
    1.4518   -0.4512   -0.0142 C   0  0  0  0  0  0  0  0  0  0  0  0
    1.9135   -0.6244    1.4450 C   0  0  0  0  0  0  0  0  0  0  0  0
    1.5863    0.6630    2.1787 C   0  0  0  0  0  0  0  0  0  0  0  0
    1.8784    1.9667    1.4592 C   0  0  0  0  0  0  0  0  0  0  0  0
    1.4213    1.7970   -0.0019 C   0  0  0  0  0  0  0  0  0  0  0  0
    2.1672    0.6858   -0.5560 O   0  0  0  0  0  0  0  0  0  0  0  0
    1.0366   -2.0038    2.2060 Cl  0  0  0  0  0  0  0  0  0  0  0  0
    3.6908   -0.9236    1.4945 Cl  0  0  0  0  0  0  0  0  0  0  0  0
    0.9645    3.3134    2.2351 Cl  0  0  0  0  0  0  0  0  0  0  0  0
    3.6469    2.3134    1.5122 Cl  0  0  0  0  0  0  0  0  0  0  0  0
    1.1124    0.6505    3.2894 O   0  0  0  0  0  0  0  0  0  0  0  0
    1.6549   -1.7247   -0.8375 C   0  0  0  0  0  0  0  0  0  0  0  0
    0.7724   -2.7440   -0.3637 O   0  0  0  0  0  0  0  0  0  0  0  0
    0.8262   -3.9477   -0.9922 C   0  0  0  0  0  0  0  0  0  0  0  0
   -0.0027   -4.9824   -0.5838 C   0  0  0  0  0  0  0  0  0  0  0  0
    0.0539   -6.2051   -1.2243 C   0  0  0  0  0  0  0  0  0  0  0  0
    0.9358   -6.3981   -2.2715 C   0  0  0  0  0  0  0  0  0  0  0  0
    1.7634   -5.3686   -2.6802 C   0  0  0  0  0  0  0  0  0  0  0  0
    1.7062   -4.1421   -2.0470 C   0  0  0  0  0  0  0  0  0  0  0  0
  1  2  2  0  0  0
  2  3  1  0  0  0
  3  4  1  0  0  0
  4  5  1  0  0  0
  5  6  1  0  0  0
  6  7  1  0  0  0
  7  1  1  0  0  0
  3  8  1  0  0  0
  8  7  1  0  0  0
  4  9  1  0  0  0
  4 10  1  0  0  0
  6 11  1  0  0  0
  6 12  1  0  0  0
  5 13  2  0  0  0
  3 14  1  0  0  0
 14 15  1  0  0  0
 15 16  1  0  0  0
 16 17  2  0  0  0
 17 18  1  0  0  0
 18 19  2  0  0  0
 19 20  1  0  0  0
 20 21  2  0  0  0
 21 16  1  0  0  0
M  END
$$$$
