
  corina  12080917083D 1   1.00000     0.00000 
CORINA 3.46 0026  05.08.2008
 38 39  0  0  0  0  0  0  0  0999 V2000
    1.3222    0.6904   -0.1508 C   0  0  0  0  0  0  0  0  0  0  0  0
    2.0827    1.9939   -0.0476 C   0  0  1  0  0  0  0  0  0  0  0  0
    2.6213    2.1319    1.3803 C   0  0  1  0  0  0  0  0  0  0  0  0
    3.4443    0.8923    1.7349 C   0  0  2  0  0  0  0  0  0  0  0  0
    2.5455   -0.3454    1.7308 C   0  0  3  0  0  0  0  0  0  0  0  0
    2.0040   -0.5766    0.3161 C   0  0  3  0  0  0  0  0  0  0  0  0
    3.3556   -1.5658    2.1728 C   0  0  0  0  0  0  0  0  0  0  0  0
    1.4547   -0.1453    2.6319 O   0  0  0  0  0  0  0  0  0  0  0  0
    4.2399    0.7635    1.0011 H   0  0  0  0  0  0  0  0  0  0  0  0
    4.0492    1.0675    3.1040 C   0  0  0  0  0  0  0  0  0  0  0  0
    1.2852   -1.3959    0.3286 H   0  0  0  0  0  0  0  0  0  0  0  0
    3.1417   -0.9155   -0.6123 C   0  0  0  0  0  0  0  0  0  0  0  0
    2.8860   -1.3774   -1.8464 O   0  0  0  0  0  0  0  0  0  0  0  0
    4.2840   -0.7714   -0.2457 O   0  0  0  0  0  0  0  0  0  0  0  0
    4.0305   -1.6831   -2.6860 C   0  0  0  0  0  0  0  0  0  0  0  0
    0.2013    0.6613   -0.5992 O   0  0  0  0  0  0  0  0  0  0  0  0
    3.2310    1.9887   -1.0235 C   0  0  0  0  0  0  0  0  0  0  0  0
    4.3014    1.5351   -0.6944 O   0  0  0  0  0  0  0  0  0  0  0  0
    3.0646    2.4879   -2.2583 O   0  0  0  0  0  0  0  0  0  0  0  0
    4.2138    2.4501   -3.1450 C   0  0  0  0  0  0  0  0  0  0  0  0
    3.4935    3.3574    1.4722 C   0  0  0  0  0  0  0  0  0  0  0  0
    1.7875    2.2259    2.0759 H   0  0  0  0  0  0  0  0  0  0  0  0
    3.7828    0.2865    3.9866 O   0  0  0  0  0  0  0  0  0  0  0  0
    4.8839    2.0911    3.3430 O   0  0  0  0  0  0  0  0  0  0  0  0
    5.4289    2.1979    4.6846 C   0  0  0  0  0  0  0  0  0  0  0  0
    2.4558   -2.7734    2.2267 C   0  0  0  0  0  0  0  0  0  0  0  0
    1.2664   -2.6488    2.0540 O   0  0  0  0  0  0  0  0  0  0  0  0
    2.9755   -3.9875    2.4667 O   0  0  0  0  0  0  0  0  0  0  0  0
    2.0495   -5.1052    2.5045 C   0  0  0  0  0  0  0  0  0  0  0  0
    4.8478    3.2628    1.2112 C   0  0  0  0  0  0  0  0  0  0  0  0
    5.6482    4.3864    1.2954 C   0  0  0  0  0  0  0  0  0  0  0  0
    5.0939    5.6060    1.6409 C   0  0  0  0  0  0  0  0  0  0  0  0
    3.7385    5.7001    1.9020 C   0  0  0  0  0  0  0  0  0  0  0  0
    2.9381    4.5769    1.8120 C   0  0  0  0  0  0  0  0  0  0  0  0
    1.4152    2.8260   -0.2721 H   0  0  0  0  0  0  0  0  0  0  0  0
    6.0987    7.0176    1.7474 Cl  0  0  0  0  0  0  0  0  0  0  0  0
    4.1612   -1.7445    1.4606 H   0  0  0  0  0  0  0  0  0  0  0  0
    3.7780   -1.3830    3.1609 H   0  0  0  0  0  0  0  0  0  0  0  0
 17 19  1  0  0  0  0
  4  3  1  0  0  0  0
 19 20  1  0  0  0  0
  4 10  1  0  0  0  0
  3 21  1  0  0  0  0
  4  5  1  0  0  0  0
  3 22  1  0  0  0  0
  6 11  1  0  0  0  0
 10 23  2  0  0  0  0
  5  6  1  0  0  0  0
 10 24  1  0  0  0  0
  6 12  1  0  0  0  0
 24 25  1  0  0  0  0
  1  6  1  0  0  0  0
  7 26  1  0  0  0  0
 12 13  1  0  0  0  0
 26 27  2  0  0  0  0
 26 28  1  0  0  0  0
 12 14  2  0  0  0  0
 28 29  1  0  0  0  0
  5  7  1  0  0  0  0
 21 30  2  0  0  0  0
 13 15  1  0  0  0  0
 30 31  1  0  0  0  0
  1  2  1  0  0  0  0
 31 32  2  0  0  0  0
  1 16  2  0  0  0  0
 32 33  1  0  0  0  0
  5  8  1  0  0  0  0
 33 34  2  0  0  0  0
 34 21  1  0  0  0  0
  2 17  1  0  0  0  0
  2 35  1  0  0  0  0
  2  3  1  0  0  0  0
 32 36  1  0  0  0  0
 17 18  2  0  0  0  0
  7 37  1  0  0  0  0
  4  9  1  0  0  0  0
  7 38  1  0  0  0  0
M  END
$$$$
