m422.skc
  corina  12080917083D 1   1.00000     0.00000 
CORINA 3.46 0026  05.08.2008
 35 38  0  0  0  0  0  0  0  0999 V2000
   -0.0157    1.3097    0.0092 C   0  0  0  0  0  0  0  0  0  0  0  0
    0.0021   -0.0041    0.0020 N   0  0  0  0  0  0  0  0  0  0  0  0
    2.3696    1.4139   -0.0130 C   0  0  0  0  0  0  0  0  0  0  0  0
    1.1592    2.0524    0.0020 C   0  0  0  0  0  0  0  0  0  0  0  0
    2.3801    0.0091   -0.0207 C   0  0  0  0  0  0  0  0  0  0  0  0
    1.1472   -0.6805   -0.0126 C   0  0  0  0  0  0  0  0  0  0  0  0
    3.6128   -2.0582   -0.0458 C   0  0  0  0  0  0  0  0  0  0  0  0
    3.5966   -0.7094   -0.0373 C   0  0  0  0  0  0  0  0  0  0  0  0
    2.4137   -2.8073   -0.0372 C   0  0  0  0  0  0  0  0  0  0  0  0
    1.1634   -2.1478   -0.0211 C   0  0  0  0  0  0  0  0  0  0  0  0
    0.0302   -2.8457   -0.0144 N   0  0  0  0  0  0  0  0  0  0  0  0
    0.0263   -4.1565   -0.0223 C   0  0  0  0  0  0  0  0  0  0  0  0
    1.2248   -4.8892   -0.0379 C   0  0  0  0  0  0  0  0  0  0  0  0
    2.4416   -4.2092   -0.0455 C   0  0  0  0  0  0  0  0  0  0  0  0
    1.1968   -6.3209   -0.0453 C   0  0  0  0  0  0  0  0  0  0  0  0
    1.1737   -7.4946   -0.0515 C   0  0  0  0  0  0  0  0  0  0  0  0
    1.1456   -8.9263   -0.0590 C   0  0  0  0  0  0  0  0  0  0  0  0
    2.3398   -9.6518   -0.0744 C   0  0  0  0  0  0  0  0  0  0  0  0
    2.3052  -11.0305   -0.0816 C   0  0  0  0  0  0  0  0  0  0  0  0
    1.0913  -11.6957   -0.0735 C   0  0  0  0  0  0  0  0  0  0  0  0
   -0.0959  -10.9833   -0.0582 C   0  0  0  0  0  0  0  0  0  0  0  0
   -0.0763   -9.6047   -0.0451 C   0  0  0  0  0  0  0  0  0  0  0  0
    1.0502  -13.7903   -0.0852 I   0  0  0  0  0  0  0  0  0  0  0  0
   -1.4125  -11.7165   -0.0500 C   0  0  0  0  0  0  0  0  0  0  0  0
   -1.7496  -12.1753   -1.4702 C   0  0  0  0  0  0  0  0  0  0  0  0
    3.6624   -8.9293   -0.0837 C   0  0  0  0  0  0  0  0  0  0  0  0
    4.0638   -8.5819    1.3512 C   0  0  0  0  0  0  0  0  0  0  0  0
   -3.0862  -12.9197   -1.4619 C   0  0  0  0  0  0  0  0  0  0  0  0
   -3.4233  -13.3785   -2.8820 C   0  0  0  0  0  0  0  0  0  0  0  0
   -4.7600  -14.1229   -2.8737 C   0  0  0  0  0  0  0  0  0  0  0  0
   -5.0971  -14.5817   -4.2938 C   0  0  0  0  0  0  0  0  0  0  0  0
    5.4065   -7.8484    1.3418 C   0  0  0  0  0  0  0  0  0  0  0  0
    5.8079   -7.5010    2.7767 C   0  0  0  0  0  0  0  0  0  0  0  0
    7.1506   -6.7675    2.7673 C   0  0  0  0  0  0  0  0  0  0  0  0
    7.5521   -6.4201    4.2022 C   0  0  0  0  0  0  0  0  0  0  0  0
  1  2  2  0  0  0
  2  6  1  0  0  0
  5  3  1  0  0  0
  3  4  2  0  0  0
  4  1  1  0  0  0
  5  6  1  0  0  0
  6 10  2  0  0  0
  9  7  2  0  0  0
  7  8  1  0  0  0
  8  5  2  0  0  0
  9 10  1  0  0  0
 10 11  1  0  0  0
 11 12  2  0  0  0
 12 13  1  0  0  0
 13 14  2  0  0  0
 14  9  1  0  0  0
 13 15  1  0  0  0
 15 16  3  0  0  0
 16 17  1  0  0  0
 17 18  2  0  0  0
 18 19  1  0  0  0
 19 20  2  0  0  0
 20 21  1  0  0  0
 21 22  2  0  0  0
 22 17  1  0  0  0
 20 23  1  0  0  0
 21 24  1  0  0  0
 24 25  1  0  0  0
 18 26  1  0  0  0
 26 27  1  0  0  0
 25 28  1  0  0  0
 28 29  1  0  0  0
 29 30  1  0  0  0
 30 31  1  0  0  0
 27 32  1  0  0  0
 32 33  1  0  0  0
 33 34  1  0  0  0
 34 35  1  0  0  0
M  END
$$$$
