m372.cdx
  corina  12080917083D 1   1.00000     0.00000 
CORINA 3.46 0026  05.08.2008
 20 21  0  0  0  0  0  0  0  0999 V2000
   -0.0159    1.3231    0.0093 N   0  0  0  0  0  0  0  0  0  0  0  0
    0.0021   -0.0041    0.0020 C   0  0  0  0  0  0  0  0  0  0  0  0
    1.1493   -0.6681   -0.0125 N   0  0  0  0  0  0  0  0  0  0  0  0
    2.2960    0.0094   -0.0198 C   0  0  0  0  0  0  0  0  0  0  0  0
    2.2481    1.4071   -0.0118 C   0  0  0  0  0  0  0  0  0  0  0  0
    1.0720    2.0105    0.0026 N   0  0  0  0  0  0  0  0  0  0  0  0
    3.5972   -0.7038   -0.0356 C   0  0  0  0  0  0  0  0  0  0  0  0
    3.6452   -2.1014   -0.0431 C   0  0  0  0  0  0  0  0  0  0  0  0
    4.8212   -2.7048   -0.0571 N   0  0  0  0  0  0  0  0  0  0  0  0
    5.9092   -2.0174   -0.0637 N   0  0  0  0  0  0  0  0  0  0  0  0
    5.8912   -0.6903   -0.0569 C   0  0  0  0  0  0  0  0  0  0  0  0
    4.7439   -0.0262   -0.0484 N   0  0  0  0  0  0  0  0  0  0  0  0
    3.8446    2.4205   -0.0210 Br  0  0  0  0  0  0  0  0  0  0  0  0
   -1.1929   -0.7040    0.0101 N   0  0  0  0  0  0  0  0  0  0  0  0
   -2.4660    0.0205    0.0267 C   0  0  0  0  0  0  0  0  0  0  0  0
   -1.1838   -2.1689    0.0022 C   0  0  0  0  0  0  0  0  0  0  0  0
    2.0487   -3.1148   -0.0327 Br  0  0  0  0  0  0  0  0  0  0  0  0
    7.0861    0.0097   -0.0640 N   0  0  0  0  0  0  0  0  0  0  0  0
    8.3593   -0.7149   -0.0791 C   0  0  0  0  0  0  0  0  0  0  0  0
    7.0770    1.4746   -0.0565 C   0  0  0  0  0  0  0  0  0  0  0  0
  1  2  2  0  0  0
  2  3  1  0  0  0
  3  4  2  0  0  0
  4  5  1  0  0  0
  5  6  2  0  0  0
  6  1  1  0  0  0
  4  7  1  0  0  0
  7  8  2  0  0  0
  8  9  1  0  0  0
  9 10  2  0  0  0
 10 11  1  0  0  0
 11 12  2  0  0  0
 12  7  1  0  0  0
  5 13  1  0  0  0
  2 14  1  0  0  0
 14 15  1  0  0  0
 14 16  1  0  0  0
  8 17  1  0  0  0
 11 18  1  0  0  0
 18 19  1  0  0  0
 18 20  1  0  0  0
M  END
$$$$
