Molecule structure.cdx
  corina  11111514133D 1   1.00000     0.00000 
CORINA 3.60 0026  08.12.2014
 16 16  0  0  0  0  0  0  0  0999 V2000
   -0.0168    1.3889    0.0097 C   0  0  0  0  0  0  0  0  0  0  0  0
    0.0021   -0.0041    0.0020 C   0  0  0  0  0  0  0  0  0  0  0  0
    1.1773   -0.6905   -0.0125 C   0  0  0  0  0  0  0  0  0  0  0  0
    2.3950    0.0116   -0.0203 C   0  0  0  0  0  0  0  0  0  0  0  0
    2.3733    1.4285   -0.0130 C   0  0  0  0  0  0  0  0  0  0  0  0
    1.1424    2.1035    0.0024 C   0  0  0  0  0  0  0  0  0  0  0  0
    3.5646   -0.6357   -0.0341 N   0  3  0  0  0  0  0  0  0  0  0  0
    4.7030    0.0142   -0.0406 C   0  0  0  0  0  0  0  0  0  0  0  0
    4.7524    1.4067   -0.0341 C   0  0  0  0  0  0  0  0  0  0  0  0
    3.5939    2.1298   -0.0210 C   0  0  0  0  0  0  0  0  0  0  0  0
    3.6215    3.6365   -0.0136 C   0  0  0  0  0  0  0  0  0  0  0  0
    3.5743   -2.1006   -0.0414 C   0  0  0  0  0  0  0  0  0  0  0  0
    3.4391   -2.6043   -1.4798 C   0  0  0  0  0  0  0  0  0  0  0  0
    3.4492   -4.1343   -1.4875 C   0  0  0  0  0  0  0  0  0  0  0  0
    3.2581   -4.8460   -3.5200 I   0  0  0  0  0  0  0  0  0  0  0  0
    9.7524    8.6365    5.0097 I   0  5  0  0  0  0  0  0  0  0  0  0
  1  2  2  0      
  2  3  1  0      
  3  4  2  0      
  4  5  1  0      
  5  6  2  0      
  6  1  1  0      
  4  7  1  0      
  7  8  2  0      
  8  9  1  0      
  9 10  2  0      
 10  5  1  0      
 10 11  1  0      
  7 12  1  0      
 12 13  1  0      
 13 14  1  0      
 14 15  1  0      
M  CHG  2   7   1  16  -1
M  END
$$$$
