Untitled Document-1
  corina  02131210103D 1   1.00000     0.00000 
CORINA 3.49 0024  01.06.2011
 26 28  0  0  0  0  0  0  0  0999 V2000
   -0.0167    1.3815    0.0096 C   0  0  0  0  0  0  0  0  0  0  0  0
    0.0021   -0.0041    0.0020 C   0  0  0  0  0  0  0  0  0  0  0  0
    1.2090   -0.6848   -0.0127 C   0  0  0  0  0  0  0  0  0  0  0  0
    2.3978    0.0149   -0.0198 C   0  0  0  0  0  0  0  0  0  0  0  0
    2.3838    1.4089   -0.0126 C   0  0  0  0  0  0  0  0  0  0  0  0
    1.1672    2.0895    0.0021 C   0  0  0  0  0  0  0  0  0  0  0  0
    3.6590    2.1655   -0.0197 C   0  0  0  0  0  0  0  0  0  0  0  0
    3.6390    3.5589   -0.0125 C   0  0  0  0  0  0  0  0  0  0  0  0
    4.8301    4.2712   -0.0191 C   0  0  0  0  0  0  0  0  0  0  0  0
    6.0584    3.5805   -0.0327 C   0  0  0  0  0  0  0  0  0  0  0  0
    6.0671    2.1777   -0.0394 C   0  0  0  0  0  0  0  0  0  0  0  0
    4.8727    1.4797   -0.0278 C   0  0  0  0  0  0  0  0  0  0  0  0
    4.8104    5.7528   -0.0125 C   0  0  0  0  0  0  0  0  0  0  0  0
    7.2457    1.5061   -0.0525 O   0  0  0  0  0  0  0  0  0  0  0  0
    7.3249    4.3266   -0.0403 C   0  0  0  0  0  0  0  0  0  0  0  0
    7.8576    4.6305    1.0093 O   0  0  0  0  0  0  0  0  0  0  0  0
    7.8957    4.6739   -1.2112 O   0  0  0  0  0  0  0  0  0  0  0  0
    9.1457    5.4096   -1.1427 C   0  0  0  0  0  0  0  0  0  0  0  0
    9.6374    5.7126   -2.5594 C   0  0  0  0  0  0  0  0  0  0  0  0
   -1.1598   -0.6934    0.0094 F   0  0  0  0  0  0  0  0  0  0  0  0
    4.0182    6.4459   -0.9272 C   0  0  0  0  0  0  0  0  0  0  0  0
    4.0027    7.8251   -0.9169 C   0  0  0  0  0  0  0  0  0  0  0  0
    4.7729    8.5220    0.0006 C   0  0  0  0  0  0  0  0  0  0  0  0
    5.5618    7.8376    0.9115 C   0  0  0  0  0  0  0  0  0  0  0  0
    5.5797    6.4584    0.9123 C   0  0  0  0  0  0  0  0  0  0  0  0
    4.7549    9.8729    0.0067 F   0  0  0  0  0  0  0  0  0  0  0  0
  1  2  2  0      
  2  3  1  0      
  3  4  2  0      
  4  5  1  0      
  5  6  2  0      
  6  1  1  0      
  5  7  1  0      
  7  8  2  0      
  8  9  1  0      
  9 10  2  0      
 10 11  1  0      
 11 12  2  0      
 12  7  1  0      
  9 13  1  0      
 11 14  1  0      
 10 15  1  0      
 15 16  2  0      
 15 17  1  0      
 17 18  1  0      
 18 19  1  0      
  2 20  1  0      
 13 21  2  0      
 21 22  1  0      
 22 23  2  0      
 23 24  1  0      
 24 25  2  0      
 25 13  1  0      
 23 26  1  0      
M  END
$$$$
