
  corina  12080917083D 1   1.00000     0.00000 
CORINA 3.46 0026  05.08.2008
 28 30  0  0  0  0  0  0  0  0999 V2000
   -1.5391    0.2459   -0.4326 N   0  0  0  0  0  0  0  0  0  0  0  0
   -0.2993    0.1859   -0.8464 C   0  0  0  0  0  0  0  0  0  0  0  0
    0.0801   -1.1595   -0.8959 C   0  0  0  0  0  0  0  0  0  0  0  0
   -0.9763   -1.9050   -0.4968 C   0  0  0  0  0  0  0  0  0  0  0  0
   -1.9883   -1.0612   -0.2048 N   0  0  3  0  0  0  0  0  0  0  0  0
   -7.1612    1.6112    0.0312 C   0  0  0  0  0  0  0  0  0  0  0  0
   -7.1190    2.9485   -0.1701 C   0  0  0  0  0  0  0  0  0  0  0  0
   -5.7798    3.3492   -0.1209 C   0  0  0  0  0  0  0  0  0  0  0  0
   -5.0443    2.2902    0.1019 N   0  0  0  0  0  0  0  0  0  0  0  0
   -5.8934    1.1808    0.2020 N   0  0  3  0  0  0  0  0  0  0  0  0
   -1.0155   -3.4081   -0.3959 C   0  0  0  0  0  0  0  0  0  0  0  0
   -8.4014    0.7556    0.0591 C   0  0  0  0  0  0  0  0  0  0  0  0
   -5.2720    4.7575   -0.2934 C   0  0  0  0  0  0  0  0  0  0  0  0
    0.5694    1.3630   -1.2079 C   0  0  0  0  0  0  0  0  0  0  0  0
   -3.8257    4.7899   -0.0480 N   0  0  3  0  0  0  0  0  0  0  0  0
   -0.0111    2.5903   -0.6471 N   0  0  3  0  0  0  0  0  0  0  0  0
   -3.4569    3.8815    1.0460 C   0  0  0  0  0  0  0  0  0  0  0  0
   -3.0734    4.4693   -1.2684 C   0  0  0  0  0  0  0  0  0  0  0  0
    1.0405    3.5305   -0.2370 C   0  0  0  0  0  0  0  0  0  0  0  0
   -0.9363    3.2182   -1.5999 C   0  0  0  0  0  0  0  0  0  0  0  0
   -1.5763    4.4485   -0.9537 C   0  0  0  0  0  0  0  0  0  0  0  0
   -3.3209   -1.4451    0.2670 C   0  0  0  0  0  0  0  0  0  0  0  0
   -4.0139   -0.2288    0.8846 C   0  0  0  0  0  0  0  0  0  0  0  0
   -5.4803   -0.2028    0.4490 C   0  0  0  0  0  0  0  0  0  0  0  0
    1.8002    2.9574    0.8861 C   0  0  0  0  0  0  0  0  0  0  0  0
    2.3865    2.5152    1.7528 N   0  0  0  0  0  0  0  0  0  0  0  0
   -4.3715    4.0841    2.1814 C   0  0  0  0  0  0  0  0  0  0  0  0
   -5.0774    4.2404    3.0576 N   0  0  0  0  0  0  0  0  0  0  0  0
  2 14  1  0  0  0  0
  3  4  2  0  0  0  0
 13 15  1  0  0  0  0
  4  5  1  0  0  0  0
 14 16  1  0  0  0  0
  6  7  2  0  0  0  0
 15 17  1  0  0  0  0
  7  8  1  0  0  0  0
 15 18  1  0  0  0  0
  8  9  2  0  0  0  0
 16 19  1  0  0  0  0
  9 10  1  0  0  0  0
 16 20  1  0  0  0  0
  6 10  1  0  0  0  0
 20 21  1  0  0  0  0
 18 21  1  0  0  0  0
 19 25  1  0  0  0  0
 17 27  1  0  0  0  0
  1  5  1  0  0  0  0
  5 22  1  0  0  0  0
  4 11  1  0  0  0  0
 22 23  1  0  0  0  0
 23 24  1  0  0  0  0
 10 24  1  0  0  0  0
  6 12  1  0  0  0  0
  1  2  2  0  0  0  0
 25 26  3  0  0  0  0
  8 13  1  0  0  0  0
  2  3  1  0  0  0  0
 27 28  3  0  0  0  0
G   25 19
CN
G   27 17
CN
M  STY  2   1 SUP   2 SUP
M  SLB  2   1   1   2   2
M  SAL   1  2  25  26
M  SBL   1  1  17
M  SMT   1 CN
M  SBV   1  17    0.0000   -0.5900
M  SAL   2  2  27  28
M  SBL   2  1  18
M  SMT   2 CN
M  SBV   2  18    0.0000    0.5800
M  END
$$$$
