m544.cdx
  corina  12080917093D 1   1.00000     0.00000 
CORINA 3.46 0026  05.08.2008
 44 47  0  0  0  0  0  0  0  0999 V2000
    4.4408    0.8649    0.8757 C   0  0  0  0  0  0  0  0  0  0  0  0
    3.8484   -0.3317    0.5213 C   0  0  0  0  0  0  0  0  0  0  0  0
    2.9369   -0.3704   -0.5239 C   0  0  0  0  0  0  0  0  0  0  0  0
    2.6228    0.7934   -1.2106 C   0  0  0  0  0  0  0  0  0  0  0  0
    3.2179    1.9875   -0.8523 C   0  0  0  0  0  0  0  0  0  0  0  0
    4.1261    2.0233    0.1897 C   0  0  0  0  0  0  0  0  0  0  0  0
    2.3531   -1.5464   -0.8747 O   0  0  0  0  0  0  0  0  0  0  0  0
    2.6346   -2.6810   -0.0529 C   0  0  0  0  0  0  0  0  0  0  0  0
    3.8756   -3.4295   -0.4744 C   0  0  0  0  0  0  0  0  0  0  0  0
    3.0986   -4.4913   -0.7806 N   0  0  0  0  0  0  0  0  0  0  0  0
    1.7999   -3.9134   -0.4159 C   0  0  0  0  0  0  0  0  0  0  0  0
    5.0622   -3.1830   -0.5196 O   0  0  0  0  0  0  0  0  0  0  0  0
    1.1390   -4.5789    0.7636 C   0  0  0  0  0  0  0  0  0  0  0  0
   -0.2377   -4.5249    0.9076 C   0  0  0  0  0  0  0  0  0  0  0  0
   -0.8445   -5.1358    2.0013 C   0  0  0  0  0  0  0  0  0  0  0  0
   -0.0689   -5.7951    2.9409 C   0  0  0  0  0  0  0  0  0  0  0  0
    1.3049   -5.8452    2.7912 C   0  0  0  0  0  0  0  0  0  0  0  0
    1.9073   -5.2386    1.7052 C   0  0  0  0  0  0  0  0  0  0  0  0
   -0.9947   -3.8761   -0.0173 O   0  0  0  0  0  0  0  0  0  0  0  0
   -2.1956   -5.0852    2.1473 O   0  0  0  0  0  0  0  0  0  0  0  0
    3.4453   -5.8115   -1.3127 C   0  0  0  0  0  0  0  0  0  0  0  0
   -2.7490   -5.7342    3.2939 C   0  0  0  0  0  0  0  0  0  0  0  0
    2.4314   -6.2109   -2.3879 C   0  0  0  0  0  0  0  0  0  0  0  0
    2.5047   -5.2096   -3.5448 C   0  0  0  0  0  0  0  0  0  0  0  0
    3.9383   -5.1719   -4.0829 C   0  0  0  0  0  0  0  0  0  0  0  0
    4.8940   -4.8126   -2.9422 C   0  0  0  0  0  0  0  0  0  0  0  0
    4.7532   -5.7655   -1.8866 O   0  0  0  0  0  0  0  0  0  0  0  0
    6.3343   -4.8317   -3.4581 C   0  0  0  0  0  0  0  0  0  0  0  0
    7.2300   -4.3768   -2.4097 O   0  0  0  0  0  0  0  0  0  0  0  0
    8.9240   -4.6660   -3.7989 O   0  0  0  0  0  0  0  0  0  0  0  0
    8.5392   -4.3342   -2.7027 C   0  0  0  0  0  0  0  0  0  0  0  0
    9.5291   -3.8725   -1.6644 C   0  0  0  0  0  0  0  0  0  0  0  0
    2.7426   -7.5419   -2.8778 O   0  0  0  0  0  0  0  0  0  0  0  0
    0.5909   -7.8433   -3.2813 O   0  0  0  0  0  0  0  0  0  0  0  0
    1.7141   -8.2878   -3.3107 C   0  0  0  0  0  0  0  0  0  0  0  0
    1.9601   -9.6797   -3.8333 C   0  0  0  0  0  0  0  0  0  0  0  0
    1.5996   -5.6224   -4.6025 O   0  0  0  0  0  0  0  0  0  0  0  0
    1.3405   -3.4956   -5.1440 O   0  0  0  0  0  0  0  0  0  0  0  0
    1.0630   -4.6518   -5.3587 C   0  0  0  0  0  0  0  0  0  0  0  0
    0.1146   -5.0042   -6.4755 C   0  0  0  0  0  0  0  0  0  0  0  0
    4.2900   -6.4750   -4.6184 O   0  0  0  0  0  0  0  0  0  0  0  0
    5.6338   -5.4677   -6.0548 O   0  0  0  0  0  0  0  0  0  0  0  0
    5.1714   -6.5002   -5.6304 C   0  0  0  0  0  0  0  0  0  0  0  0
    5.5844   -7.8164   -6.2373 C   0  0  0  0  0  0  0  0  0  0  0  0
  1  2  2  0      
  2  3  1  0      
  3  4  2  0      
  4  5  1  0      
  5  6  2  0      
  6  1  1  0      
  3  7  1  0      
  8  9  1  0      
  9 10  1  0      
 10 11  1  0      
 11  8  1  0      
  8  7  1  0      
  9 12  2  0      
 13 14  2  0      
 14 15  1  0      
 15 16  2  0      
 16 17  1  0      
 17 18  2  0      
 18 13  1  0      
 14 19  1  0      
 20 15  1  0      
 10 21  1  0      
 20 22  1  0      
 21 23  1  0      
 23 24  1  0      
 24 25  1  0      
 25 26  1  0      
 26 27  1  0      
 27 21  1  0      
 26 28  1  0      
 13 11  1  0      
 28 29  1  0      
 29 31  1  0      
 30 31  2  0      
 31 32  1  0      
 23 33  1  0      
 33 35  1  0      
 34 35  2  0      
 35 36  1  0      
 24 37  1  0      
 37 39  1  0      
 38 39  2  0      
 39 40  1  0      
 25 41  1  0      
 41 43  1  0      
 42 43  2  0      
 43 44  1  0      
M  STY  1   1 SUP
M  SLB  1   1   1
M  SAL   1  4  29  30  31  32
M  SBL   1  1  32
M  SMT   1 OAc
M  SBV   1  32   -0.8250    0.0024
M  STY  1   2 SUP
M  SLB  1   2   2
M  SAL   2  4  33  34  35  36
M  SBL   2  1  36
M  SMT   2 ^OAc
M  SBV   2  36    0.4145    0.7133
M  STY  1   3 SUP
M  SLB  1   3   3
M  SAL   3  4  37  38  39  40
M  SBL   3  1  40
M  SMT   3 OAc
M  SBV   3  40    0.0000    0.8250
M  STY  1   4 SUP
M  SLB  1   4   4
M  SAL   4  4  41  42  43  44
M  SBL   4  1  44
M  SMT   4 OAc
M  SBV   4  44   -0.5785    0.5882
M  END
$$$$
