
  corina  04211405293D 1   1.00000     0.00000 
CORINA 3.49 0023  12.04.2013
 54 55  0  0  0  0  0  0  0  0999 V2000
   -0.0167    1.3830    0.0096 C   0  0  0  0  0  0  0  0  0  0  0  0
    0.0021   -0.0041    0.0020 C   0  0  0  0  0  0  0  0  0  0  0  0
    1.2071   -0.6754   -0.0110 C   0  0  0  0  0  0  0  0  0  0  0  0
    2.4048    0.0325   -0.0163 C   0  0  0  0  0  0  0  0  0  0  0  0
    2.3854    1.4159   -0.0128 C   0  0  0  0  0  0  0  0  0  0  0  0
    1.1751    2.0891    0.0021 C   0  0  0  0  0  0  0  0  0  0  0  0
    4.7627    0.0232   -0.3946 C   0  0  0  0  0  0  0  0  0  0  0  0
    4.8339    1.3343    0.3985 C   0  0  0  0  0  0  0  0  0  0  0  0
    3.6610    2.2196   -0.0299 C   0  0  0  0  0  0  0  0  0  0  0  0
    5.9827   -0.8416   -0.0710 C   0  0  0  0  0  0  0  0  0  0  0  0
    5.9719   -2.0900   -0.9554 C   0  0  0  0  0  0  0  0  0  0  0  0
    7.1918   -2.9549   -0.6318 C   0  0  0  0  0  0  0  0  0  0  0  0
    7.1810   -4.2033   -1.5162 C   0  0  0  0  0  0  0  0  0  0  0  0
    3.5704   -0.6671   -0.0183 O   0  0  0  0  0  0  0  0  0  0  0  0
    8.3125   -5.1138   -1.1138 C   0  0  0  0  0  0  0  0  0  0  0  0
    7.3527   -3.7928   -2.9801 C   0  0  0  0  0  0  0  0  0  0  0  0
    9.0517   -4.7967   -0.2122 O   0  0  0  0  0  0  0  0  0  0  0  0
    1.1546    3.5959    0.0095 C   0  0  0  0  0  0  0  0  0  0  0  0
   -1.2920   -0.7764    0.0084 C   0  0  0  0  0  0  0  0  0  0  0  0
    1.2263   -2.1823   -0.0190 C   0  0  0  0  0  0  0  0  0  0  0  0
   -1.2027    2.0482    0.0189 O   0  0  0  0  0  0  0  0  0  0  0  0
    4.7309    0.3288   -1.8934 C   0  0  0  0  0  0  0  0  0  0  0  0
    8.4991   -6.2770   -1.7571 O   0  0  0  0  0  0  0  0  0  0  0  0
    9.6085   -7.1035   -1.3161 C   0  0  0  0  0  0  0  0  0  0  0  0
    4.7638    1.1226    1.4655 H   0  0  0  0  0  0  0  0  0  0  0  0
    5.7745    1.8421    0.1852 H   0  0  0  0  0  0  0  0  0  0  0  0
    3.8394    2.5955   -1.0373 H   0  0  0  0  0  0  0  0  0  0  0  0
    3.5699    3.0593    0.6590 H   0  0  0  0  0  0  0  0  0  0  0  0
    6.8924   -0.2713   -0.2586 H   0  0  0  0  0  0  0  0  0  0  0  0
    5.9498   -1.1386    0.9772 H   0  0  0  0  0  0  0  0  0  0  0  0
    5.0622   -2.6604   -0.7678 H   0  0  0  0  0  0  0  0  0  0  0  0
    6.0048   -1.7930   -2.0037 H   0  0  0  0  0  0  0  0  0  0  0  0
    8.1016   -2.3845   -0.8194 H   0  0  0  0  0  0  0  0  0  0  0  0
    7.1589   -3.2519    0.4164 H   0  0  0  0  0  0  0  0  0  0  0  0
    6.2327   -4.7266   -1.3945 H   0  0  0  0  0  0  0  0  0  0  0  0
    6.5344   -3.1343   -3.2711 H   0  0  0  0  0  0  0  0  0  0  0  0
    8.3011   -3.2695   -3.1019 H   0  0  0  0  0  0  0  0  0  0  0  0
    7.3450   -4.6822   -3.6102 H   0  0  0  0  0  0  0  0  0  0  0  0
    1.1592    3.9542    1.0389 H   0  0  0  0  0  0  0  0  0  0  0  0
    2.0348    3.9738   -0.5106 H   0  0  0  0  0  0  0  0  0  0  0  0
    0.2551    3.9496   -0.4943 H   0  0  0  0  0  0  0  0  0  0  0  0
   -1.6124   -0.9570   -1.0176 H   0  0  0  0  0  0  0  0  0  0  0  0
   -1.1437   -1.7295    0.5159 H   0  0  0  0  0  0  0  0  0  0  0  0
   -2.0558   -0.2011    0.5316 H   0  0  0  0  0  0  0  0  0  0  0  0
    1.2228   -2.5402   -1.0486 H   0  0  0  0  0  0  0  0  0  0  0  0
    2.1249   -2.5369    0.4859 H   0  0  0  0  0  0  0  0  0  0  0  0
    0.3451   -2.5596    0.4998 H   0  0  0  0  0  0  0  0  0  0  0  0
   -1.5415    2.2359    0.9049 H   0  0  0  0  0  0  0  0  0  0  0  0
    5.6338    0.8717   -2.1728 H   0  0  0  0  0  0  0  0  0  0  0  0
    4.6803   -0.6049   -2.4536 H   0  0  0  0  0  0  0  0  0  0  0  0
    3.8558    0.9373   -2.1217 H   0  0  0  0  0  0  0  0  0  0  0  0
    9.6464   -8.0118   -1.9175 H   0  0  0  0  0  0  0  0  0  0  0  0
   10.5413   -6.5517   -1.4322 H   0  0  0  0  0  0  0  0  0  0  0  0
    9.4706   -7.3675   -0.2676 H   0  0  0  0  0  0  0  0  0  0  0  0
  2  1  1  0      
  1  6  2  0      
  1 21  1  0      
  3  2  2  0      
  2 19  1  0      
  4  3  1  0      
 20  3  1  0      
  4  5  2  0      
 14  4  1  0      
  6  5  1  0      
  5  9  1  0      
  6 18  1  0      
  7  8  1  0      
  7 10  1  0      
  7 14  1  0      
  7 22  1  0      
  9  8  1  0      
  8 25  1  0      
  8 26  1  0      
  9 27  1  0      
  9 28  1  0      
 10 11  1  0      
 10 29  1  0      
 10 30  1  0      
 11 12  1  0      
 11 31  1  0      
 11 32  1  0      
 12 13  1  0      
 12 33  1  0      
 12 34  1  0      
 13 15  1  0      
 16 13  1  0      
 13 35  1  0      
 15 17  2  0      
 15 23  1  0      
 16 36  1  0      
 16 37  1  0      
 16 38  1  0      
 18 39  1  0      
 18 40  1  0      
 18 41  1  0      
 19 42  1  0      
 19 43  1  0      
 19 44  1  0      
 20 45  1  0      
 20 46  1  0      
 20 47  1  0      
 21 48  1  0      
 22 49  1  0      
 22 50  1  0      
 22 51  1  0      
 23 24  1  0      
 24 52  1  0      
 24 53  1  0      
 24 54  1  0      
M  END
$$$$
