
  corina  01261011343D 1   1.00000     0.00000 
CORINA 3.46 0026  05.08.2008
 17 18  0  0  0  0  0  0  0  0  1 V2000
   -0.0166    1.3751    0.0096 C   0  0  0  0  0  0  0  0  0  0  0  0
    0.0021   -0.0041    0.0020 C   0  0  0  0  0  0  0  0  0  0  0  0
    1.1854    2.0866    0.0019 C   0  0  0  0  0  0  0  0  0  0  0  0
    1.2078   -0.6828   -0.0131 C   0  0  0  0  0  0  0  0  0  0  0  0
    2.3987    1.3948   -0.0134 C   0  0  0  0  0  0  0  0  0  0  0  0
    2.4023    0.0154   -0.0203 C   0  0  0  0  0  0  0  0  0  0  0  0
    1.1735    3.5615    0.0095 C   0  0  0  0  0  0  0  0  0  0  0  0
   -0.0211    5.5826    0.0044 N   0  0  0  0  0  0  0  0  0  0  0  0
    0.0432    4.1868    0.0232 N   0  0  0  0  0  0  0  0  0  0  0  0
    1.0590    6.3128   -0.3326 C   0  0  0  0  0  0  0  0  0  0  0  0
    2.3229    5.6160   -0.7775 C   0  0  0  0  0  0  0  0  0  0  0  0
    2.4790    4.3117    0.0072 C   0  0  0  0  0  0  0  0  0  0  0  0
    1.0193    7.5232   -0.2742 O   0  0  0  0  0  0  0  0  0  0  0  0
   -1.1736    6.2031    0.3258 C   0  0  0  0  0  0  0  0  0  0  0  0
   -1.2349    7.4168    0.3111 O   0  0  0  0  0  0  0  0  0  0  0  0
   -2.2580    5.4776    0.6636 N   0  0  0  0  0  0  0  0  0  0  0  0
   -2.1891    4.1134    0.6801 N   0  0  0  0  0  0  0  0  0  0  0  0
  2  1  1  0  0  0  0
  3  1  2  0  0  0  0
  4  2  2  0  0  0  0
  5  3  1  0  0  0  0
  6  4  1  0  0  0  0
  6  5  2  0  0  0  0
  3  7  1  0  0  0  0
  9  8  1  0  0  0  0
 10  8  1  0  0  0  0
  7  9  2  0  0  0  0
 11 10  1  0  0  0  0
 12  7  1  0  0  0  0
 12 11  1  0  0  0  0
 10 13  2  0  0  0  0
  8 14  1  0  0  0  0
 14 15  2  0  0  0  0
 14 16  1  0  0  0  0
 16 17  1  0  0  0  0
M  END

$$$$
