
  corina  12080917083D 1   1.00000     0.00000 
CORINA 3.46 0026  05.08.2008
 23 25  0  0  0  0  0  0  0  0999 V2000
   -0.0180    1.4735    0.0101 C   0  0  0  0  0  0  0  0  0  0  0  0
   -1.2342    2.1581    0.0313 C   0  0  0  0  0  0  0  0  0  0  0  0
   -1.2459    3.5375    0.0392 C   0  0  0  0  0  0  0  0  0  0  0  0
   -0.0558    4.2434    0.0263 C   0  0  0  0  0  0  0  0  0  0  0  0
    1.1536    3.5726    0.0054 C   0  0  0  0  0  0  0  0  0  0  0  0
    1.1806    2.1918    0.0026 C   0  0  0  0  0  0  0  0  0  0  0  0
   -1.1463   -4.1901   -1.4494 C   0  0  3  0  0  0  0  0  0  0  0  0
   -1.1360   -2.1586    0.0013 C   0  0  3  0  0  0  0  0  0  0  0  0
   -2.4290   -2.6890    0.6272 C   0  0  0  0  0  0  0  0  0  0  0  0
   -2.4627   -4.2186    0.4789 C   0  0  3  0  0  0  0  0  0  0  0  0
   -2.5174   -4.5191   -0.9766 N   0  0  3  0  0  0  0  0  0  0  0  0
   -1.0169   -2.6585   -1.4413 C   0  0  0  0  0  0  0  0  0  0  0  0
   -1.0893   -4.7677    0.9289 C   0  0  3  0  0  0  0  0  0  0  0  0
   -0.2194   -4.7488   -0.3452 C   0  0  0  0  0  0  0  0  0  0  0  0
   -2.8290   -5.9356   -1.2103 C   0  0  0  0  0  0  0  0  0  0  0  0
   -1.1558   -0.6938    0.0094 N   0  0  0  0  0  0  0  0  0  0  0  0
   -0.5115   -3.9099    1.9480 O   0  0  0  0  0  0  0  0  0  0  0  0
    0.0021   -0.0041    0.0020 C   0  0  0  0  0  0  0  0  0  0  0  0
    1.0629   -0.5975   -0.0113 O   0  0  0  0  0  0  0  0  0  0  0  0
    0.2908   -4.4932    2.8524 C   0  0  0  0  0  0  0  0  0  0  0  0
    0.9266   -3.6663    3.9400 C   0  0  0  0  0  0  0  0  0  0  0  0
    0.5031   -5.6812    2.7944 O   0  0  0  0  0  0  0  0  0  0  0  0
    2.6991    1.3509   -0.0232 Cl  0  0  0  0  0  0  0  0  0  0  0  0
 10 11  1  0  0  0  0
 11  7  1  0  0  0  0
  7 12  1  0  0  0  0
 12  8  1  0  0  0  0
 10 13  1  0  0  0  0
  7 14  1  0  0  0  0
 13 14  1  0  0  0  0
  3  4  2  0  0  0  0
 11 15  1  0  0  0  0
  8 16  1  0  0  0  0
  4  5  1  0  0  0  0
 13 17  1  0  0  0  0
  2  3  1  0  0  0  0
 16 18  1  0  0  0  0
  5  6  2  0  0  0  0
 18 19  2  0  0  0  0
 18  1  1  0  0  0  0
  6  1  1  0  0  0  0
 17 20  1  0  0  0  0
  1  2  2  0  0  0  0
 20 21  1  0  0  0  0
  8  9  1  0  0  0  0
 20 22  2  0  0  0  0
  9 10  1  0  0  0  0
  6 23  1  0  0  0  0
M  END
$$$$
