m387.cdx
  corina  12080917083D 1   1.00000     0.00000 
CORINA 3.46 0026  05.08.2008
 11 11  0  0  0  0  0  0  0  0999 V2000
    0.2382    1.3386   -0.0247 C   0  0  0  0  0  0  0  0  0  0  0  0
    0.1205   -0.0949    0.0771 O   0  0  0  0  0  0  0  0  0  0  0  0
    1.3858   -0.5953    0.5290 C   0  0  0  0  0  0  0  0  0  0  0  0
    2.2798    0.5137    0.7229 O   0  0  0  0  0  0  0  0  0  0  0  0
    1.7675    1.5574   -0.1399 C   0  0  0  0  0  0  0  0  0  0  0  0
    1.2004   -1.3432    1.8508 C   0  0  0  0  0  0  0  0  0  0  0  0
    1.9665   -1.5465   -0.5192 C   0  0  0  0  0  0  0  0  0  0  0  0
    0.4923   -0.4335    2.8566 C   0  0  0  0  0  0  0  0  0  0  0  0
    1.2770    0.8717    3.0043 C   0  0  0  0  0  0  0  0  0  0  0  0
   -1.3239   -0.0374    2.2167 Br  0  0  0  0  0  0  0  0  0  0  0  0
    0.4130   -1.1371    4.2129 C   0  0  0  0  0  0  0  0  0  0  0  0
  1  2  1  0  0  0
  2  3  1  0  0  0
  3  4  1  0  0  0
  4  5  1  0  0  0
  5  1  1  0  0  0
  3  6  1  0  0  0
  3  7  1  0  0  0
  6  8  1  0  0  0
  8  9  1  0  0  0
  8 10  1  0  0  0
  8 11  1  0  0  0
M  END
$$$$
