Simerska_(LHRH)4GalLCP.mol
  corina  12161515223D 1   1.00000     0.00000 
CORINA 3.60 0026  08.12.2014
423447  0  0  0  0  0  0  0  0999 V2000
   -6.4221    1.1322   14.2149 N   0  0  0  0  0  0  0  0  0  0  0  0
   -7.1441   -0.1153   14.4767 C   0  0  0  0  0  0  0  0  0  0  0  0
   -7.6300   -0.1245   15.9032 C   0  0  0  0  0  0  0  0  0  0  0  0
   -7.4929    0.8608   16.5969 O   0  0  0  0  0  0  0  0  0  0  0  0
   -8.2169   -1.2278   16.4081 N   0  0  0  0  0  0  0  0  0  0  0  0
   -8.5897   -1.2763   17.8240 C   0  0  0  0  0  0  0  0  0  0  0  0
   -9.1089   -2.6506   18.1599 C   0  0  0  0  0  0  0  0  0  0  0  0
   -9.0764   -3.5315   17.3269 O   0  0  0  0  0  0  0  0  0  0  0  0
   -9.6093   -2.9009   19.3861 N   0  0  0  0  0  0  0  0  0  0  0  0
  -10.0190   -4.2604   19.7466 C   0  0  0  0  0  0  0  0  0  0  0  0
   -9.8422   -4.4618   21.2296 C   0  0  0  0  0  0  0  0  0  0  0  0
   -9.5376   -3.5247   21.9367 O   0  0  0  0  0  0  0  0  0  0  0  0
  -10.0225   -5.6832   21.7700 N   0  0  0  0  0  0  0  0  0  0  0  0
   -9.9591   -5.8578   23.2232 C   0  0  0  0  0  0  0  0  0  0  0  0
  -11.3307   -5.6556   23.8138 C   0  0  0  0  0  0  0  0  0  0  0  0
  -12.2689   -5.3916   23.0919 O   0  0  0  0  0  0  0  0  0  0  0  0
  -11.5148   -5.7681   25.1442 N   0  0  0  0  0  0  0  0  0  0  0  0
  -12.8482   -5.5715   25.7183 C   0  0  0  0  0  0  0  0  0  0  0  0
  -12.7830   -5.7512   27.2131 C   0  0  0  0  0  0  0  0  0  0  0  0
  -13.8985   -5.6162   27.9574 N   0  0  0  0  0  0  0  0  0  0  0  0
  -11.7267   -6.0172   27.7464 O   0  0  0  0  0  0  0  0  0  0  0  0
   -9.4679   -7.2704   23.5462 C   0  0  0  0  0  0  0  0  0  0  0  0
   -8.0512   -7.4553   22.9989 C   0  0  0  0  0  0  0  0  0  0  0  0
   -7.6067   -8.9036   23.2131 C   0  0  0  0  0  0  0  0  0  0  0  0
   -6.2418   -9.1206   22.5567 C   0  0  0  0  0  0  0  0  0  0  0  0
   -5.7408  -10.5305   22.8758 C   0  0  0  0  0  0  0  0  0  0  0  0
   -4.4367  -10.7917   22.1195 C   0  0  0  0  0  0  0  0  0  0  0  0
   -4.0010  -12.2417   22.3399 C   0  0  0  0  0  0  0  0  0  0  0  0
   -2.6359  -12.4688   21.6873 C   0  0  0  0  0  0  0  0  0  0  0  0
   -2.1438  -13.8806   22.0122 C   0  0  0  0  0  0  0  0  0  0  0  0
   -0.7270  -14.0654   21.4651 C   0  0  0  0  0  0  0  0  0  0  0  0
  -11.4892   -4.4653   19.3758 C   0  0  0  0  0  0  0  0  0  0  0  0
  -11.6480   -4.3842   17.8562 C   0  0  0  0  0  0  0  0  0  0  0  0
  -13.1182   -4.5890   17.4855 C   0  0  0  0  0  0  0  0  0  0  0  0
  -13.2770   -4.5079   15.9659 C   0  0  0  0  0  0  0  0  0  0  0  0
  -14.7472   -4.7128   15.5951 C   0  0  0  0  0  0  0  0  0  0  0  0
  -14.9060   -4.6317   14.0755 C   0  0  0  0  0  0  0  0  0  0  0  0
  -16.3762   -4.8365   13.7048 C   0  0  0  0  0  0  0  0  0  0  0  0
  -16.5350   -4.7554   12.1852 C   0  0  0  0  0  0  0  0  0  0  0  0
  -18.0052   -4.9602   11.8144 C   0  0  0  0  0  0  0  0  0  0  0  0
  -18.1640   -4.8792   10.2948 C   0  0  0  0  0  0  0  0  0  0  0  0
   -8.3411   -0.2202   13.5296 C   0  0  0  0  0  0  0  0  0  0  0  0
   -7.8420   -0.3364   12.0879 C   0  0  0  0  0  0  0  0  0  0  0  0
   -9.0390   -0.4413   11.1408 C   0  0  0  0  0  0  0  0  0  0  0  0
   -8.5399   -0.5575    9.6991 C   0  0  0  0  0  0  0  0  0  0  0  0
   -9.7369   -0.6624    8.7519 C   0  0  0  0  0  0  0  0  0  0  0  0
   -9.2379   -0.7785    7.3103 C   0  0  0  0  0  0  0  0  0  0  0  0
  -10.4348   -0.8835    6.3631 C   0  0  0  0  0  0  0  0  0  0  0  0
   -9.9358   -0.9996    4.9215 C   0  0  0  0  0  0  0  0  0  0  0  0
  -11.1328   -1.1046    3.9743 C   0  0  0  0  0  0  0  0  0  0  0  0
  -10.6337   -1.2207    2.5327 C   0  0  0  0  0  0  0  0  0  0  0  0
    3.4745    4.6370    8.5416 C   0  0  0  0  0  0  0  0  0  0  0  0
    3.6828    4.0435    9.9383 C   0  0  0  0  0  0  0  0  0  0  0  0
    3.2016    5.0515   10.9864 C   0  0  0  0  0  0  0  0  0  0  0  0
    1.7352    5.3974   10.7150 C   0  0  0  0  0  0  0  0  0  0  0  0
    1.6068    5.9151    9.3892 O   0  0  0  0  0  0  0  0  0  0  0  0
    1.9975    4.9988    8.3646 C   0  0  0  0  0  0  0  0  0  0  0  0
    1.7918    5.6477    6.9943 C   0  0  0  0  0  0  0  0  0  0  0  0
    0.4001    5.9002    6.7909 O   0  0  0  0  0  0  0  0  0  0  0  0
    4.2746    5.8123    8.3980 O   0  0  0  0  0  0  0  0  0  0  0  0
    2.9334    2.8329   10.0599 O   0  0  0  0  0  0  0  0  0  0  0  0
    3.3239    4.4798   12.2903 O   0  0  0  0  0  0  0  0  0  0  0  0
    0.9156    4.1906   10.8496 N   0  0  0  0  0  0  0  0  0  0  0  0
   -0.3131    4.2681   11.3980 C   0  0  0  0  0  0  0  0  0  0  0  0
   -1.2054    3.0539   11.4224 C   0  0  0  0  0  0  0  0  0  0  0  0
   -2.4633    3.3617   12.2371 C   0  0  0  0  0  0  0  0  0  0  0  0
   -3.3124    2.0951   12.3625 C   0  0  0  0  0  0  0  0  0  0  0  0
   -4.5686    2.4021   13.1801 C   0  0  0  0  0  0  0  0  0  0  0  0
   -5.3451    1.1302   13.4046 C   0  0  0  0  0  0  0  0  0  0  0  0
   -0.7007    5.3151   11.8719 O   0  0  0  0  0  0  0  0  0  0  0  0
   -5.0008    0.1047   12.8562 O   0  0  0  0  0  0  0  0  0  0  0  0
   -4.7424   -4.4891   46.3817 C   0  0  0  0  0  0  0  0  0  0  0  0
   -5.5135   -3.6159   46.7192 O   0  0  0  0  0  0  0  0  0  0  0  0
   -5.3070   -5.6230   48.4676 N   0  0  0  0  0  0  0  0  0  0  0  0
   -4.6944   -5.7880   47.1442 C   0  0  0  0  0  0  0  0  0  0  0  0
   -5.5444   -6.8605   46.4274 C   0  0  0  0  0  0  0  0  0  0  0  0
   -6.1315   -7.6476   47.6219 C   0  0  0  0  0  0  0  0  0  0  0  0
   -6.1147   -6.6558   48.7641 C   0  0  0  0  0  0  0  0  0  0  0  0
   -3.4884   -3.2609   43.1751 C   0  0  0  0  0  0  0  0  0  0  0  0
   -3.1371   -4.3677   42.8252 O   0  0  0  0  0  0  0  0  0  0  0  0
   -3.9285   -4.2977   45.3246 N   0  0  0  0  0  0  0  0  0  0  0  0
   -3.9752   -3.0350   44.5833 C   0  0  0  0  0  0  0  0  0  0  0  0
   -3.0789   -2.0049   45.2737 C   0  0  0  0  0  0  0  0  0  0  0  0
   -3.6364   -1.6875   46.6373 C   0  0  0  0  0  0  0  0  0  0  0  0
   -2.9723   -1.7809   47.8051 C   0  0  0  0  0  0  0  0  0  0  0  0
   -3.8451   -1.4006   48.7886 N   0  0  0  0  0  0  0  0  0  0  0  0
   -5.0130   -1.0877   48.1871 C   0  0  0  0  0  0  0  0  0  0  0  0
   -4.8792   -1.2569   46.9000 N   0  0  0  0  0  0  0  0  0  0  0  0
   -2.4374   -1.1593   40.3748 C   0  0  0  0  0  0  0  0  0  0  0  0
   -2.4514   -0.1532   41.0520 O   0  0  0  0  0  0  0  0  0  0  0  0
   -3.4435   -2.2329   42.3046 N   0  0  0  0  0  0  0  0  0  0  0  0
   -2.9704   -2.4526   40.9356 C   0  0  0  0  0  0  0  0  0  0  0  0
   -4.1303   -2.9451   40.0679 C   0  0  0  0  0  0  0  0  0  0  0  0
   -4.5830   -4.2974   40.5551 C   0  0  0  0  0  0  0  0  0  0  0  0
   -4.1893   -5.4899   40.0807 C   0  0  0  0  0  0  0  0  0  0  0  0
   -4.8120   -6.4948   40.7697 N   0  0  0  0  0  0  0  0  0  0  0  0
   -5.6427   -5.9599   41.7287 C   0  0  0  0  0  0  0  0  0  0  0  0
   -6.4881   -6.5173   42.6822 C   0  0  0  0  0  0  0  0  0  0  0  0
   -7.2082   -5.6960   43.5220 C   0  0  0  0  0  0  0  0  0  0  0  0
   -7.0992   -4.3157   43.4270 C   0  0  0  0  0  0  0  0  0  0  0  0
   -6.2750   -3.7468   42.4971 C   0  0  0  0  0  0  0  0  0  0  0  0
   -5.5314   -4.5601   41.6402 C   0  0  0  0  0  0  0  0  0  0  0  0
   -1.5156    0.1060   37.0714 C   0  0  0  0  0  0  0  0  0  0  0  0
   -1.9669   -0.8697   36.5102 O   0  0  0  0  0  0  0  0  0  0  0  0
   -1.9452   -1.1207   39.1207 N   0  0  0  0  0  0  0  0  0  0  0  0
   -1.4271    0.1365   38.5755 C   0  0  0  0  0  0  0  0  0  0  0  0
    0.0332    0.3118   38.9971 C   0  0  0  0  0  0  0  0  0  0  0  0
    0.8279   -0.7151   38.4002 O   0  0  0  0  0  0  0  0  0  0  0  0
   -0.1485    2.0660   34.3050 C   0  0  0  0  0  0  0  0  0  0  0  0
    0.5855    2.6934   35.0388 O   0  0  0  0  0  0  0  0  0  0  0  0
   -1.0931    1.1632   36.3500 N   0  0  0  0  0  0  0  0  0  0  0  0
   -1.1791    1.1336   34.8878 C   0  0  0  0  0  0  0  0  0  0  0  0
   -2.5757    1.5793   34.4500 C   0  0  0  0  0  0  0  0  0  0  0  0
   -3.5956    0.5789   34.9297 C   0  0  0  0  0  0  0  0  0  0  0  0
   -4.1863    0.7361   36.1699 C   0  0  0  0  0  0  0  0  0  0  0  0
   -5.1212   -0.1798   36.6121 C   0  0  0  0  0  0  0  0  0  0  0  0
   -5.4675   -1.2578   35.8104 C   0  0  0  0  0  0  0  0  0  0  0  0
   -6.3873   -2.1599   36.2430 O   0  0  0  0  0  0  0  0  0  0  0  0
   -4.8738   -1.4130   34.5663 C   0  0  0  0  0  0  0  0  0  0  0  0
   -3.9433   -0.4915   34.1265 C   0  0  0  0  0  0  0  0  0  0  0  0
    0.8707    3.0786   30.8978 C   0  0  0  0  0  0  0  0  0  0  0  0
    0.0515    2.3696   30.3527 O   0  0  0  0  0  0  0  0  0  0  0  0
   -0.0426    2.2026   32.9684 N   0  0  0  0  0  0  0  0  0  0  0  0
    0.9592    3.1090   32.4019 C   0  0  0  0  0  0  0  0  0  0  0  0
    2.9454    4.2047   28.1066 C   0  0  0  0  0  0  0  0  0  0  0  0
    3.8734    4.4834   28.8360 O   0  0  0  0  0  0  0  0  0  0  0  0
    1.7020    3.8393   30.1583 N   0  0  0  0  0  0  0  0  0  0  0  0
    1.6160    3.8097   28.6961 C   0  0  0  0  0  0  0  0  0  0  0  0
    0.5391    4.7909   28.2286 C   0  0  0  0  0  0  0  0  0  0  0  0
   -0.8297    4.3201   28.7242 C   0  0  0  0  0  0  0  0  0  0  0  0
   -1.8890    5.3638   28.3645 C   0  0  0  0  0  0  0  0  0  0  0  0
   -1.1813    2.9869   28.0609 C   0  0  0  0  0  0  0  0  0  0  0  0
    4.1853    5.1923   24.8126 C   0  0  0  0  0  0  0  0  0  0  0  0
    3.1532    4.9662   24.2173 O   0  0  0  0  0  0  0  0  0  0  0  0
    3.1032    4.2482   26.7688 N   0  0  0  0  0  0  0  0  0  0  0  0
    4.3956    4.6321   26.1957 C   0  0  0  0  0  0  0  0  0  0  0  0
    5.3033    3.4030   26.1156 C   0  0  0  0  0  0  0  0  0  0  0  0
    5.6099    2.9025   27.5286 C   0  0  0  0  0  0  0  0  0  0  0  0
    6.5176    1.6734   27.4485 C   0  0  0  0  0  0  0  0  0  0  0  0
    6.8112    1.1942   28.8014 N   0  0  0  0  0  0  0  0  0  0  0  0
    7.6138    0.0925   28.9813 C   0  0  0  0  0  0  0  0  0  0  0  0
    8.1135   -0.5255   27.9482 N   0  0  0  0  0  0  0  0  0  0  0  0
    7.8893   -0.3572   30.2509 N   0  0  0  0  0  0  0  0  0  0  0  0
    4.7771    5.6188   21.8500 C   0  0  0  0  0  0  0  0  0  0  0  0
    4.6921    4.4400   22.1224 O   0  0  0  0  0  0  0  0  0  0  0  0
    5.1443    5.9445   24.2372 N   0  0  0  0  0  0  0  0  0  0  0  0
    5.0344    6.6273   22.9399 C   0  0  0  0  0  0  0  0  0  0  0  0
    6.3767    7.3448   22.6846 C   0  0  0  0  0  0  0  0  0  0  0  0
    7.3666    6.5613   23.5867 C   0  0  0  0  0  0  0  0  0  0  0  0
    6.4746    6.2242   24.8075 C   0  0  0  0  0  0  0  0  0  0  0  0
    4.2803    5.7558   18.1883 C   0  0  0  0  0  0  0  0  0  0  0  0
    4.3986    6.9616   18.1343 O   0  0  0  0  0  0  0  0  0  0  0  0
    4.6414    6.0268   20.5727 N   0  0  0  0  0  0  0  0  0  0  0  0
    4.3912    5.0464   19.5133 C   0  0  0  0  0  0  0  0  0  0  0  0
    4.0496    5.0502   17.0634 N   0  0  0  0  0  0  0  0  0  0  0  0
    3.9418    5.7399   15.7754 C   0  0  0  0  0  0  0  0  0  0  0  0
    3.6806    4.7159   14.6689 C   0  0  0  0  0  0  0  0  0  0  0  0
    3.5680    5.4362   13.3237 C   0  0  0  0  0  0  0  0  0  0  0  0
   -6.7388   -6.7753   49.7970 O   0  0  0  0  0  0  0  0  0  0  0  0
  -33.8251    2.5768   -0.7331 C   0  0  0  0  0  0  0  0  0  0  0  0
  -33.9591    2.2448   -1.8919 O   0  0  0  0  0  0  0  0  0  0  0  0
  -36.2075    2.1254   -0.4571 N   0  0  0  0  0  0  0  0  0  0  0  0
  -34.9408    2.3411    0.2521 C   0  0  0  0  0  0  0  0  0  0  0  0
  -34.6867    1.0408    1.0465 C   0  0  0  0  0  0  0  0  0  0  0  0
  -36.1221    0.4939    1.2237 C   0  0  0  0  0  0  0  0  0  0  0  0
  -36.8940    1.0976    0.0711 C   0  0  0  0  0  0  0  0  0  0  0  0
  -30.2793    3.4470   -0.5495 C   0  0  0  0  0  0  0  0  0  0  0  0
  -30.2514    3.3125    0.6555 O   0  0  0  0  0  0  0  0  0  0  0  0
  -32.6783    3.1565   -0.3265 N   0  0  0  0  0  0  0  0  0  0  0  0
  -31.5937    3.3857   -1.2842 C   0  0  0  0  0  0  0  0  0  0  0  0
  -31.8308    4.7080   -2.0165 C   0  0  0  0  0  0  0  0  0  0  0  0
  -33.0825    4.6037   -2.8492 C   0  0  0  0  0  0  0  0  0  0  0  0
  -34.1424    5.4324   -2.7918 C   0  0  0  0  0  0  0  0  0  0  0  0
  -35.0499    4.9789   -3.7108 N   0  0  0  0  0  0  0  0  0  0  0  0
  -34.5124    3.8881   -4.2982 C   0  0  0  0  0  0  0  0  0  0  0  0
  -33.3337    3.6726   -3.7814 N   0  0  0  0  0  0  0  0  0  0  0  0
  -26.8705    4.5194   -1.3194 C   0  0  0  0  0  0  0  0  0  0  0  0
  -27.2019    4.9987   -2.3831 O   0  0  0  0  0  0  0  0  0  0  0  0
  -29.1349    3.6512   -1.2315 N   0  0  0  0  0  0  0  0  0  0  0  0
  -27.8573    3.7108   -0.5172 C   0  0  0  0  0  0  0  0  0  0  0  0
  -27.3156    2.2933   -0.3217 C   0  0  0  0  0  0  0  0  0  0  0  0
  -28.2422    1.5218    0.5823 C   0  0  0  0  0  0  0  0  0  0  0  0
  -28.1185    1.3697    1.9103 C   0  0  0  0  0  0  0  0  0  0  0  0
  -29.1473    0.6058    2.3903 N   0  0  0  0  0  0  0  0  0  0  0  0
  -29.9793    0.2384    1.3566 C   0  0  0  0  0  0  0  0  0  0  0  0
  -31.1444   -0.5181    1.2878 C   0  0  0  0  0  0  0  0  0  0  0  0
  -31.7636   -0.7121    0.0722 C   0  0  0  0  0  0  0  0  0  0  0  0
  -31.2364   -0.1599   -1.0868 C   0  0  0  0  0  0  0  0  0  0  0  0
  -30.0924    0.5864   -1.0422 C   0  0  0  0  0  0  0  0  0  0  0  0
  -29.4521    0.8009    0.1795 C   0  0  0  0  0  0  0  0  0  0  0  0
  -23.2581    5.0778   -1.2750 C   0  0  0  0  0  0  0  0  0  0  0  0
  -23.0777    4.2087   -0.4485 O   0  0  0  0  0  0  0  0  0  0  0  0
  -25.6198    4.7099   -0.8549 N   0  0  0  0  0  0  0  0  0  0  0  0
  -24.6605    5.4960   -1.6348 C   0  0  0  0  0  0  0  0  0  0  0  0
  -24.8455    6.9823   -1.3223 C   0  0  0  0  0  0  0  0  0  0  0  0
  -24.5112    7.2267    0.0454 O   0  0  0  0  0  0  0  0  0  0  0  0
  -19.8905    6.3978   -1.8040 C   0  0  0  0  0  0  0  0  0  0  0  0
  -20.3105    7.4433   -2.2530 O   0  0  0  0  0  0  0  0  0  0  0  0
  -22.2044    5.6696   -1.8717 N   0  0  0  0  0  0  0  0  0  0  0  0
  -20.8411    5.2630   -1.5219 C   0  0  0  0  0  0  0  0  0  0  0  0
  -20.4424    4.0443   -2.3565 C   0  0  0  0  0  0  0  0  0  0  0  0
  -21.3153    2.8735   -1.9848 C   0  0  0  0  0  0  0  0  0  0  0  0
  -22.5034    2.6571   -2.6582 C   0  0  0  0  0  0  0  0  0  0  0  0
  -23.3056    1.5848   -2.3189 C   0  0  0  0  0  0  0  0  0  0  0  0
  -22.9180    0.7244   -1.3020 C   0  0  0  0  0  0  0  0  0  0  0  0
  -23.7052   -0.3314   -0.9668 O   0  0  0  0  0  0  0  0  0  0  0  0
  -21.7253    0.9434   -0.6282 C   0  0  0  0  0  0  0  0  0  0  0  0
  -20.9241    2.0142   -0.9747 C   0  0  0  0  0  0  0  0  0  0  0  0
  -16.2472    6.9360   -1.4718 C   0  0  0  0  0  0  0  0  0  0  0  0
  -16.0401    5.8258   -1.0299 O   0  0  0  0  0  0  0  0  0  0  0  0
  -18.5737    6.2510   -1.5574 N   0  0  0  0  0  0  0  0  0  0  0  0
  -17.6496    7.3542   -1.8316 C   0  0  0  0  0  0  0  0  0  0  0  0
  -12.9709    8.5551   -1.1516 C   0  0  0  0  0  0  0  0  0  0  0  0
  -13.3597    9.6624   -1.4573 O   0  0  0  0  0  0  0  0  0  0  0  0
  -15.2232    7.7958   -1.6412 N   0  0  0  0  0  0  0  0  0  0  0  0
  -13.8479    7.3543   -1.3966 C   0  0  0  0  0  0  0  0  0  0  0  0
  -13.3338    6.5875   -2.6167 C   0  0  0  0  0  0  0  0  0  0  0  0
  -11.9268    6.0587   -2.3309 C   0  0  0  0  0  0  0  0  0  0  0  0
  -11.9821    5.0625   -1.1711 C   0  0  0  0  0  0  0  0  0  0  0  0
  -11.3816    5.3598   -3.5780 C   0  0  0  0  0  0  0  0  0  0  0  0
   -9.4903    9.1954   -0.2360 C   0  0  0  0  0  0  0  0  0  0  0  0
   -9.1667    8.0279   -0.1812 O   0  0  0  0  0  0  0  0  0  0  0  0
  -11.7545    8.3984   -0.5929 N   0  0  0  0  0  0  0  0  0  0  0  0
  -10.9491    9.5731   -0.2498 C   0  0  0  0  0  0  0  0  0  0  0  0
  -11.3567   10.0845    1.1333 C   0  0  0  0  0  0  0  0  0  0  0  0
  -12.8182   10.5359    1.1000 C   0  0  0  0  0  0  0  0  0  0  0  0
  -13.2258   11.0473    2.4832 C   0  0  0  0  0  0  0  0  0  0  0  0
  -14.6252   11.4795    2.4512 N   0  0  0  0  0  0  0  0  0  0  0  0
  -15.2161   11.9802    3.5871 C   0  0  0  0  0  0  0  0  0  0  0  0
  -16.4612   12.3647    3.5587 N   0  0  0  0  0  0  0  0  0  0  0  0
  -14.4937   12.0754    4.7529 N   0  0  0  0  0  0  0  0  0  0  0  0
   -6.7766    9.2953    1.1549 C   0  0  0  0  0  0  0  0  0  0  0  0
   -7.6688    9.0413    1.9361 O   0  0  0  0  0  0  0  0  0  0  0  0
   -8.5453   10.1551   -0.2846 N   0  0  0  0  0  0  0  0  0  0  0  0
   -7.0958    9.9369   -0.1708 C   0  0  0  0  0  0  0  0  0  0  0  0
   -6.4157   11.3192   -0.2623 C   0  0  0  0  0  0  0  0  0  0  0  0
   -7.5525   12.2933    0.1452 C   0  0  0  0  0  0  0  0  0  0  0  0
   -8.7934   11.5968   -0.4670 C   0  0  0  0  0  0  0  0  0  0  0  0
   -3.7022    8.1609    2.8680 C   0  0  0  0  0  0  0  0  0  0  0  0
   -2.9733    8.4928    1.9572 O   0  0  0  0  0  0  0  0  0  0  0  0
   -5.4996    9.0039    1.4724 N   0  0  0  0  0  0  0  0  0  0  0  0
   -5.1893    8.3803    2.7612 C   0  0  0  0  0  0  0  0  0  0  0  0
   -3.1822    7.5958    3.9756 N   0  0  0  0  0  0  0  0  0  0  0  0
   -1.7365    7.3826    4.0794 C   0  0  0  0  0  0  0  0  0  0  0  0
   -1.4124    6.7312    5.4254 C   0  0  0  0  0  0  0  0  0  0  0  0
    0.0974    6.5085    5.5338 C   0  0  0  0  0  0  0  0  0  0  0  0
  -37.9752    0.7107   -0.3192 O   0  0  0  0  0  0  0  0  0  0  0  0
   25.1140   34.3065   11.8944 C   0  0  0  0  0  0  0  0  0  0  0  0
   25.8694   33.9867   12.7877 O   0  0  0  0  0  0  0  0  0  0  0  0
   25.9861   36.5730   12.1356 N   0  0  0  0  0  0  0  0  0  0  0  0
   24.8969   35.7636   11.5766 C   0  0  0  0  0  0  0  0  0  0  0  0
   23.6102   36.2743   12.2622 C   0  0  0  0  0  0  0  0  0  0  0  0
   24.1654   36.8503   13.5855 C   0  0  0  0  0  0  0  0  0  0  0  0
   25.6047   37.1901   13.2672 C   0  0  0  0  0  0  0  0  0  0  0  0
   23.4778   31.1476   11.0535 C   0  0  0  0  0  0  0  0  0  0  0  0
   22.5376   31.7090   10.5323 O   0  0  0  0  0  0  0  0  0  0  0  0
   24.4687   33.3589   11.1859 N   0  0  0  0  0  0  0  0  0  0  0  0
   24.6797   31.9425   11.4948 C   0  0  0  0  0  0  0  0  0  0  0  0
   25.9225   31.4394   10.7578 C   0  0  0  0  0  0  0  0  0  0  0  0
   27.1421   32.1489   11.2872 C   0  0  0  0  0  0  0  0  0  0  0  0
   28.2475   31.5602   11.7822 C   0  0  0  0  0  0  0  0  0  0  0  0
   29.1023   32.5655   12.1461 N   0  0  0  0  0  0  0  0  0  0  0  0
   28.4891   33.7342   11.8606 C   0  0  0  0  0  0  0  0  0  0  0  0
   27.3192   33.4772   11.3426 N   0  0  0  0  0  0  0  0  0  0  0  0
   22.6898   27.6146   10.5438 C   0  0  0  0  0  0  0  0  0  0  0  0
   23.8445   27.2772   10.6979 O   0  0  0  0  0  0  0  0  0  0  0  0
   23.4478   29.8129   11.2380 N   0  0  0  0  0  0  0  0  0  0  0  0
   22.2794   29.0402   10.8090 C   0  0  0  0  0  0  0  0  0  0  0  0
   21.2170   29.0687   11.9096 C   0  0  0  0  0  0  0  0  0  0  0  0
   20.7179   30.4792   12.0897 C   0  0  0  0  0  0  0  0  0  0  0  0
   21.1607   31.3745   12.9865 C   0  0  0  0  0  0  0  0  0  0  0  0
   20.4711   32.5488   12.8532 N   0  0  0  0  0  0  0  0  0  0  0  0
   19.5441   32.4349   11.8414 C   0  0  0  0  0  0  0  0  0  0  0  0
   18.6047   33.3066   11.3008 C   0  0  0  0  0  0  0  0  0  0  0  0
   17.7998   32.8878   10.2638 C   0  0  0  0  0  0  0  0  0  0  0  0
   17.9161   31.6031    9.7517 C   0  0  0  0  0  0  0  0  0  0  0  0
   18.8319   30.7302   10.2683 C   0  0  0  0  0  0  0  0  0  0  0  0
   19.6620   31.1355   11.3149 C   0  0  0  0  0  0  0  0  0  0  0  0
   20.9787   24.4235   10.0411 C   0  0  0  0  0  0  0  0  0  0  0  0
   19.9009   24.8902   10.3434 O   0  0  0  0  0  0  0  0  0  0  0  0
   21.7736   26.7145   10.1353 N   0  0  0  0  0  0  0  0  0  0  0  0
   22.1725   25.3286    9.8774 C   0  0  0  0  0  0  0  0  0  0  0  0
   22.7105   25.2100    8.4500 C   0  0  0  0  0  0  0  0  0  0  0  0
   21.6591   25.4799    7.5207 O   0  0  0  0  0  0  0  0  0  0  0  0
   20.1503   20.9653    9.1940 C   0  0  0  0  0  0  0  0  0  0  0  0
   21.1637   20.8232    8.5431 O   0  0  0  0  0  0  0  0  0  0  0  0
   21.1089   23.0955    9.8516 N   0  0  0  0  0  0  0  0  0  0  0  0
   19.9484   22.2157   10.0107 C   0  0  0  0  0  0  0  0  0  0  0  0
   19.7907   21.8414   11.4858 C   0  0  0  0  0  0  0  0  0  0  0  0
   19.4670   23.0769   12.2857 C   0  0  0  0  0  0  0  0  0  0  0  0
   18.1493   23.4490   12.4779 C   0  0  0  0  0  0  0  0  0  0  0  0
   17.8499   24.5814   13.2104 C   0  0  0  0  0  0  0  0  0  0  0  0
   18.8727   25.3451   13.7537 C   0  0  0  0  0  0  0  0  0  0  0  0
   18.5807   26.4592   14.4751 O   0  0  0  0  0  0  0  0  0  0  0  0
   20.1940   24.9693   13.5599 C   0  0  0  0  0  0  0  0  0  0  0  0
   20.4879   23.8332   12.8310 C   0  0  0  0  0  0  0  0  0  0  0  0
   18.2070   17.8845    8.5567 C   0  0  0  0  0  0  0  0  0  0  0  0
   17.2833   18.2216    9.2667 O   0  0  0  0  0  0  0  0  0  0  0  0
   19.2046   20.0051    9.1870 N   0  0  0  0  0  0  0  0  0  0  0  0
   19.4008   18.7896    8.3930 C   0  0  0  0  0  0  0  0  0  0  0  0
   16.8864   14.9233    6.8685 C   0  0  0  0  0  0  0  0  0  0  0  0
   17.6916   15.0102    5.9657 O   0  0  0  0  0  0  0  0  0  0  0  0
   18.1659   16.7005    7.9142 N   0  0  0  0  0  0  0  0  0  0  0  0
   17.0054   15.8206    8.0734 C   0  0  0  0  0  0  0  0  0  0  0  0
   17.1819   14.9661    9.3302 C   0  0  0  0  0  0  0  0  0  0  0  0
   17.1777   15.8689   10.5654 C   0  0  0  0  0  0  0  0  0  0  0  0
   15.8038   16.5260   10.7123 C   0  0  0  0  0  0  0  0  0  0  0  0
   17.4782   15.0315   11.8102 C   0  0  0  0  0  0  0  0  0  0  0  0
   15.0307   11.8948    6.0038 C   0  0  0  0  0  0  0  0  0  0  0  0
   14.6395   11.7425    7.1416 O   0  0  0  0  0  0  0  0  0  0  0  0
   15.8851   14.0242    6.7941 N   0  0  0  0  0  0  0  0  0  0  0  0
   15.7693   13.1519    5.6228 C   0  0  0  0  0  0  0  0  0  0  0  0
   15.0007   13.8803    4.5185 C   0  0  0  0  0  0  0  0  0  0  0  0
   15.8109   15.0886    4.0448 C   0  0  0  0  0  0  0  0  0  0  0  0
   15.0423   15.8169    2.9405 C   0  0  0  0  0  0  0  0  0  0  0  0
   15.8182   16.9739    2.4869 N   0  0  0  0  0  0  0  0  0  0  0  0
   15.3248   17.7855    1.4929 C   0  0  0  0  0  0  0  0  0  0  0  0
   16.0151   18.8148    1.0894 N   0  0  0  0  0  0  0  0  0  0  0  0
   14.1034   17.5113    0.9245 N   0  0  0  0  0  0  0  0  0  0  0  0
   12.6835    9.9431    5.7479 C   0  0  0  0  0  0  0  0  0  0  0  0
   12.2909   11.0858    5.8539 O   0  0  0  0  0  0  0  0  0  0  0  0
   14.8049   10.9398    5.0800 N   0  0  0  0  0  0  0  0  0  0  0  0
   14.1007    9.6705    5.3142 C   0  0  0  0  0  0  0  0  0  0  0  0
   14.1013    8.8935    3.9808 C   0  0  0  0  0  0  0  0  0  0  0  0
   15.2979    9.5176    3.2154 C   0  0  0  0  0  0  0  0  0  0  0  0
   15.2174   10.9976    3.6658 C   0  0  0  0  0  0  0  0  0  0  0  0
    9.7618    7.8758    6.6771 C   0  0  0  0  0  0  0  0  0  0  0  0
   10.3470    6.8267    6.5105 O   0  0  0  0  0  0  0  0  0  0  0  0
   11.8523    8.9172    6.0181 N   0  0  0  0  0  0  0  0  0  0  0  0
   10.4745    9.1822    6.4398 C   0  0  0  0  0  0  0  0  0  0  0  0
    8.4739    7.8733    7.0746 N   0  0  0  0  0  0  0  0  0  0  0  0
    7.7810    6.6033    7.3053 C   0  0  0  0  0  0  0  0  0  0  0  0
    6.3421    6.8801    7.7457 C   0  0  0  0  0  0  0  0  0  0  0  0
    5.6185    5.5538    7.9867 C   0  0  0  0  0  0  0  0  0  0  0  0
   26.3118   37.9137   13.9360 O   0  0  0  0  0  0  0  0  0  0  0  0
   -2.7535    4.2791   -5.1848 C   0  0  0  0  0  0  0  0  0  0  0  0
   -3.7723    3.9028   -5.7245 O   0  0  0  0  0  0  0  0  0  0  0  0
   -2.5945    5.9681   -6.9391 N   0  0  0  0  0  0  0  0  0  0  0  0
   -2.1070    5.5713   -5.6129 C   0  0  0  0  0  0  0  0  0  0  0  0
   -2.5204    6.7165   -4.6622 C   0  0  0  0  0  0  0  0  0  0  0  0
   -2.6135    7.9153   -5.6345 C   0  0  0  0  0  0  0  0  0  0  0  0
   -2.8813    7.2806   -6.9813 C   0  0  0  0  0  0  0  0  0  0  0  0
   -2.4390    1.9763   -2.3632 C   0  0  0  0  0  0  0  0  0  0  0  0
   -1.7087    2.7311   -1.7565 O   0  0  0  0  0  0  0  0  0  0  0  0
   -2.1995    3.5416   -4.2021 N   0  0  0  0  0  0  0  0  0  0  0  0
   -2.8280    2.2854   -3.7859 C   0  0  0  0  0  0  0  0  0  0  0  0
   -2.3581    1.1525   -4.7006 C   0  0  0  0  0  0  0  0  0  0  0  0
   -2.8529    1.4006   -6.1023 C   0  0  0  0  0  0  0  0  0  0  0  0
   -2.0914    1.4599   -7.2114 C   0  0  0  0  0  0  0  0  0  0  0  0
   -2.9374    1.7012   -8.2602 N   0  0  0  0  0  0  0  0  0  0  0  0
   -4.1872    1.7810   -7.7550 C   0  0  0  0  0  0  0  0  0  0  0  0
   -4.1296    1.5953   -6.4646 N   0  0  0  0  0  0  0  0  0  0  0  0
   -2.6199   -0.9246   -0.1462 C   0  0  0  0  0  0  0  0  0  0  0  0
   -2.9692   -1.6599   -1.0452 O   0  0  0  0  0  0  0  0  0  0  0  0
   -2.9027    0.8612   -1.7648 N   0  0  0  0  0  0  0  0  0  0  0  0
   -2.5246    0.5608   -0.3817 C   0  0  0  0  0  0  0  0  0  0  0  0
   -3.4694    1.2905    0.5753 C   0  0  0  0  0  0  0  0  0  0  0  0
   -3.2849    2.7787    0.4258 C   0  0  0  0  0  0  0  0  0  0  0  0
   -2.4942    3.5644    1.1738 C   0  0  0  0  0  0  0  0  0  0  0  0
   -2.5837    4.8605    0.7444 N   0  0  0  0  0  0  0  0  0  0  0  0
   -3.4564    4.9426   -0.3175 C   0  0  0  0  0  0  0  0  0  0  0  0
   -3.9018    5.9938   -1.1119 C   0  0  0  0  0  0  0  0  0  0  0  0
   -4.8017    5.7511   -2.1266 C   0  0  0  0  0  0  0  0  0  0  0  0
   -5.2697    4.4665   -2.3655 C   0  0  0  0  0  0  0  0  0  0  0  0
   -4.8457    3.4191   -1.5969 C   0  0  0  0  0  0  0  0  0  0  0  0
   -3.9294    3.6412   -0.5675 C   0  0  0  0  0  0  0  0  0  0  0  0
   -2.6323   -3.1428    2.7594 C   0  0  0  0  0  0  0  0  0  0  0  0
   -2.7064   -2.2151    3.5372 O   0  0  0  0  0  0  0  0  0  0  0  0
   -2.3169   -1.4360    1.0634 N   0  0  0  0  0  0  0  0  0  0  0  0
   -2.4095   -2.8800    1.2923 C   0  0  0  0  0  0  0  0  0  0  0  0
   -1.1095   -3.5516    0.8455 C   0  0  0  0  0  0  0  0  0  0  0  0
   -0.0339   -3.1058    1.6740 O   0  0  0  0  0  0  0  0  0  0  0  0
   -2.4653   -6.0430    4.9784 C   0  0  0  0  0  0  0  0  0  0  0  0
   -1.9219   -6.7203    4.1317 O   0  0  0  0  0  0  0  0  0  0  0  0
   -2.7492   -4.4086    3.2072 N   0  0  0  0  0  0  0  0  0  0  0  0
   -2.9657   -4.6640    4.6334 C   0  0  0  0  0  0  0  0  0  0  0  0
   -4.4603   -4.5706    4.9470 C   0  0  0  0  0  0  0  0  0  0  0  0
   -4.9496   -3.1764    4.6508 C   0  0  0  0  0  0  0  0  0  0  0  0
   -5.3947   -2.8563    3.3815 C   0  0  0  0  0  0  0  0  0  0  0  0
   -5.8433   -1.5788    3.1074 C   0  0  0  0  0  0  0  0  0  0  0  0
   -5.8473   -0.6168    4.1070 C   0  0  0  0  0  0  0  0  0  0  0  0
   -6.2886    0.6405    3.8399 O   0  0  0  0  0  0  0  0  0  0  0  0
   -5.4006   -0.9407    5.3799 C   0  0  0  0  0  0  0  0  0  0  0  0
   -4.9579   -2.2210    5.6503 C   0  0  0  0  0  0  0  0  0  0  0  0
   -2.2402   -8.0612    8.0662 C   0  0  0  0  0  0  0  0  0  0  0  0
   -2.9072   -7.2903    8.7233 O   0  0  0  0  0  0  0  0  0  0  0  0
   -2.6214   -6.5235    6.2278 N   0  0  0  0  0  0  0  0  0  0  0  0
   -2.0439   -7.8198    6.5916 C   0  0  0  0  0  0  0  0  0  0  0  0
   -1.0823   -8.5806   10.9421 C   0  0  0  0  0  0  0  0  0  0  0  0
   -0.7007   -7.4973   10.5526 O   0  0  0  0  0  0  0  0  0  0  0  0
   -1.6746   -9.1336    8.6546 N   0  0  0  0  0  0  0  0  0  0  0  0
   -1.9586   -9.4326   10.0604 C   0  0  0  0  0  0  0  0  0  0  0  0
   -1.6747  -10.9107   10.3349 C   0  0  0  0  0  0  0  0  0  0  0  0
   -2.6991  -11.7729    9.5945 C   0  0  0  0  0  0  0  0  0  0  0  0
   -2.4917  -11.6286    8.0856 C   0  0  0  0  0  0  0  0  0  0  0  0
   -2.5182  -13.2380    9.9964 C   0  0  0  0  0  0  0  0  0  0  0  0
    1.0907   -8.9727   13.7754 C   0  0  0  0  0  0  0  0  0  0  0  0
    1.1312  -10.1749   13.6202 O   0  0  0  0  0  0  0  0  0  0  0  0
   -0.7227   -9.0225   12.1635 N   0  0  0  0  0  0  0  0  0  0  0  0
    0.0469   -8.1553   13.0590 C   0  0  0  0  0  0  0  0  0  0  0  0
   -0.8933   -7.5174   14.0837 C   0  0  0  0  0  0  0  0  0  0  0  0
   -1.9827   -6.7284   13.3546 C   0  0  0  0  0  0  0  0  0  0  0  0
   -2.9229   -6.0906   14.3793 C   0  0  0  0  0  0  0  0  0  0  0  0
   -3.9660   -5.3351   13.6812 N   0  0  0  0  0  0  0  0  0  0  0  0
   -4.9317   -4.6712   14.4000 C   0  0  0  0  0  0  0  0  0  0  0  0
   -5.8598   -3.9991   13.7789 N   0  0  0  0  0  0  0  0  0  0  0  0
   -4.9186   -4.7163   15.7741 N   0  0  0  0  0  0  0  0  0  0  0  0
    2.2450   -6.1536   13.6060 C   0  0  0  0  0  0  0  0  0  0  0  0
    2.2269   -6.7274   12.5377 O   0  0  0  0  0  0  0  0  0  0  0  0
    1.9791   -8.3679   14.5887 N   0  0  0  0  0  0  0  0  0  0  0  0
    2.0311   -6.9280   14.8810 C   0  0  0  0  0  0  0  0  0  0  0  0
    3.2178   -6.6978   15.8403 C   0  0  0  0  0  0  0  0  0  0  0  0
    4.1144   -7.9387   15.5880 C   0  0  0  0  0  0  0  0  0  0  0  0
    3.0557   -9.0415   15.3374 C   0  0  0  0  0  0  0  0  0  0  0  0
    3.0375   -2.6416   12.7633 C   0  0  0  0  0  0  0  0  0  0  0  0
    3.3172   -2.3131   13.8968 O   0  0  0  0  0  0  0  0  0  0  0  0
    2.4564   -4.8233   13.6530 N   0  0  0  0  0  0  0  0  0  0  0  0
    2.8145   -4.0950   12.4333 C   0  0  0  0  0  0  0  0  0  0  0  0
    2.9260   -1.7068   11.7988 N   0  0  0  0  0  0  0  0  0  0  0  0
    3.2507   -0.3088   12.0926 C   0  0  0  0  0  0  0  0  0  0  0  0
    2.9126    0.5593   10.8790 C   0  0  0  0  0  0  0  0  0  0  0  0
    3.3431    2.0025   11.1484 C   0  0  0  0  0  0  0  0  0  0  0  0
   -3.2943    7.8704   -7.9573 O   0  0  0  0  0  0  0  0  0  0  0  0
  1  2  1  0      
  2  3  1  0      
  3  5  1  0      
  3  4  2  0      
  5  6  1  0      
  6  7  1  0      
  7  9  1  0      
  7  8  2  0      
  9 10  1  0      
 10 11  1  0      
 11 13  1  0      
 11 12  2  0      
 13 14  1  0      
 14 15  1  0      
 15 17  1  0      
 15 16  2  0      
 17 18  1  0      
 18 19  1  0      
 19 20  1  0      
 19 21  2  0      
 22 14  1  0      
 23 22  1  0      
 24 23  1  0      
 25 24  1  0      
 26 25  1  0      
 27 26  1  0      
 28 27  1  0      
 29 28  1  0      
 30 29  1  0      
 31 30  1  0      
 32 10  1  0      
 33 32  1  0      
 34 33  1  0      
 35 34  1  0      
 36 35  1  0      
 37 36  1  0      
 38 37  1  0      
 39 38  1  0      
 40 39  1  0      
 41 40  1  0      
 42  2  1  0      
 43 42  1  0      
 44 43  1  0      
 45 44  1  0      
 46 45  1  0      
 47 46  1  0      
 48 47  1  0      
 49 48  1  0      
 50 49  1  0      
 51 50  1  0      
 52 53  1  0      
 53 54  1  0      
 54 55  1  0      
 55 56  1  0      
 56 57  1  0      
 57 52  1  0      
 57 58  1  0      
 58 59  1  0      
 52 60  1  0      
 53 61  1  0      
 54 62  1  0      
 55 63  1  0      
 64 63  1  0      
 65 64  1  0      
 66 65  1  0      
 67 66  1  0      
 68 67  1  0      
 69 68  1  0      
 64 70  2  0      
 69 71  2  0      
 69  1  1  0      
 72 73  2  0      
 74 75  1  0      
 75 72  1  0      
 75 76  1  0      
 76 77  1  0      
 77 78  1  0      
 74 78  1  0      
 79 80  2  0      
 81 82  1  0      
 79 82  1  0      
 82 83  1  0      
 83 84  1  0      
 84 85  2  0      
 85 86  1  0      
 86 87  1  0      
 87 88  2  0      
 84 88  1  0      
 72 81  1  0      
 89 90  2  0      
 91 92  1  0      
 89 92  1  0      
 92 93  1  0      
 93 94  1  0      
 94 95  2  0      
 95 96  1  0      
 96 97  1  0      
 97 98  2  0      
 98 99  1  0      
 99100  2  0      
100101  1  0      
101102  2  0      
 94102  1  0      
 97102  1  0      
 79 91  1  0      
103104  2  0      
105106  1  0      
103106  1  0      
106107  1  0      
107108  1  0      
 89105  1  0      
109110  2  0      
111112  1  0      
109112  1  0      
112113  1  0      
113114  1  0      
114115  2  0      
115116  1  0      
116117  2  0      
117118  1  0      
117119  1  0      
119120  2  0      
114120  1  0      
103111  1  0      
121122  2  0      
123124  1  0      
121124  1  0      
109123  1  0      
125126  2  0      
127128  1  0      
125128  1  0      
128129  1  0      
129130  1  0      
130131  1  0      
130132  1  0      
121127  1  0      
133134  2  0      
135136  1  0      
133136  1  0      
136137  1  0      
137138  1  0      
138139  1  0      
139140  1  0      
140141  1  0      
141142  2  0      
141143  1  0      
125135  1  0      
144145  2  0      
146147  1  0      
147144  1  0      
147148  1  0      
148149  1  0      
149150  1  0      
146150  1  0      
133146  1  0      
151152  2  0      
153154  1  0      
151154  1  0      
144153  1  0      
156157  1  0      
157158  1  0      
151155  1  0      
 78159  2  0      
156155  1  0      
158 62  1  0      
160161  2  0      
162163  1  0      
163160  1  0      
163164  1  0      
164165  1  0      
165166  1  0      
162166  1  0      
167168  2  0      
169170  1  0      
167170  1  0      
170171  1  0      
171172  1  0      
172173  2  0      
173174  1  0      
174175  1  0      
175176  2  0      
172176  1  0      
160169  1  0      
177178  2  0      
179180  1  0      
177180  1  0      
180181  1  0      
181182  1  0      
182183  2  0      
183184  1  0      
184185  1  0      
185186  2  0      
186187  1  0      
187188  2  0      
188189  1  0      
189190  2  0      
182190  1  0      
185190  1  0      
167179  1  0      
191192  2  0      
193194  1  0      
191194  1  0      
194195  1  0      
195196  1  0      
177193  1  0      
197198  2  0      
199200  1  0      
197200  1  0      
200201  1  0      
201202  1  0      
202203  2  0      
203204  1  0      
204205  2  0      
205206  1  0      
205207  1  0      
207208  2  0      
202208  1  0      
191199  1  0      
209210  2  0      
211212  1  0      
209212  1  0      
197211  1  0      
213214  2  0      
215216  1  0      
213216  1  0      
216217  1  0      
217218  1  0      
218219  1  0      
218220  1  0      
209215  1  0      
221222  2  0      
223224  1  0      
221224  1  0      
224225  1  0      
225226  1  0      
226227  1  0      
227228  1  0      
228229  1  0      
229230  2  0      
229231  1  0      
213223  1  0      
232233  2  0      
234235  1  0      
235232  1  0      
235236  1  0      
236237  1  0      
237238  1  0      
234238  1  0      
221234  1  0      
239240  2  0      
241242  1  0      
239242  1  0      
232241  1  0      
244245  1  0      
245246  1  0      
239243  1  0      
166247  2  0      
244243  1  0      
248249  2  0      
250251  1  0      
251248  1  0      
251252  1  0      
252253  1  0      
253254  1  0      
250254  1  0      
255256  2  0      
257258  1  0      
255258  1  0      
258259  1  0      
259260  1  0      
260261  2  0      
261262  1  0      
262263  1  0      
263264  2  0      
260264  1  0      
248257  1  0      
265266  2  0      
267268  1  0      
265268  1  0      
268269  1  0      
269270  1  0      
270271  2  0      
271272  1  0      
272273  1  0      
273274  2  0      
274275  1  0      
275276  2  0      
276277  1  0      
277278  2  0      
270278  1  0      
273278  1  0      
255267  1  0      
279280  2  0      
281282  1  0      
279282  1  0      
282283  1  0      
283284  1  0      
265281  1  0      
285286  2  0      
287288  1  0      
285288  1  0      
288289  1  0      
289290  1  0      
290291  2  0      
291292  1  0      
292293  2  0      
293294  1  0      
293295  1  0      
295296  2  0      
290296  1  0      
279287  1  0      
297298  2  0      
299300  1  0      
297300  1  0      
285299  1  0      
301302  2  0      
303304  1  0      
301304  1  0      
304305  1  0      
305306  1  0      
306307  1  0      
306308  1  0      
297303  1  0      
309310  2  0      
311312  1  0      
309312  1  0      
312313  1  0      
313314  1  0      
314315  1  0      
315316  1  0      
316317  1  0      
317318  2  0      
317319  1  0      
301311  1  0      
320321  2  0      
322323  1  0      
323320  1  0      
323324  1  0      
324325  1  0      
325326  1  0      
322326  1  0      
309322  1  0      
327328  2  0      
329330  1  0      
327330  1  0      
320329  1  0      
332333  1  0      
333334  1  0      
327331  1  0      
254335  2  0      
332331  1  0      
 59246  1  0      
336337  2  0      
338339  1  0      
339336  1  0      
339340  1  0      
340341  1  0      
341342  1  0      
338342  1  0      
343344  2  0      
345346  1  0      
343346  1  0      
346347  1  0      
347348  1  0      
348349  2  0      
349350  1  0      
350351  1  0      
351352  2  0      
348352  1  0      
336345  1  0      
353354  2  0      
355356  1  0      
353356  1  0      
356357  1  0      
357358  1  0      
358359  2  0      
359360  1  0      
360361  1  0      
361362  2  0      
362363  1  0      
363364  2  0      
364365  1  0      
365366  2  0      
358366  1  0      
361366  1  0      
343355  1  0      
367368  2  0      
369370  1  0      
367370  1  0      
370371  1  0      
371372  1  0      
353369  1  0      
373374  2  0      
375376  1  0      
373376  1  0      
376377  1  0      
377378  1  0      
378379  2  0      
379380  1  0      
380381  2  0      
381382  1  0      
381383  1  0      
383384  2  0      
378384  1  0      
367375  1  0      
385386  2  0      
387388  1  0      
385388  1  0      
373387  1  0      
389390  2  0      
391392  1  0      
389392  1  0      
392393  1  0      
393394  1  0      
394395  1  0      
394396  1  0      
385391  1  0      
397398  2  0      
399400  1  0      
397400  1  0      
400401  1  0      
401402  1  0      
402403  1  0      
403404  1  0      
404405  1  0      
405406  2  0      
405407  1  0      
389399  1  0      
408409  2  0      
410411  1  0      
411408  1  0      
411412  1  0      
412413  1  0      
413414  1  0      
410414  1  0      
397410  1  0      
415416  2  0      
417418  1  0      
415418  1  0      
408417  1  0      
420421  1  0      
415419  1  0      
342423  2  0      
420419  1  0      
 60334  1  0      
 61422  1  0      
421422  1  0      
M  END
$$$$
