
  corina  12080917083D 1   1.00000     0.00000 
CORINA 3.46 0026  05.08.2008
 36 39  0  0  0  0  0  0  0  0999 V2000
    0.2280    1.5709   -0.2622 C   0  0  0  0  0  0  0  0  0  0  0  0
   -1.0005    2.2083   -0.3758 C   0  0  0  0  0  0  0  0  0  0  0  0
   -2.1649    1.4655   -0.3749 C   0  0  0  0  0  0  0  0  0  0  0  0
   -2.1083    0.0886   -0.2605 C   0  0  0  0  0  0  0  0  0  0  0  0
   -0.8865   -0.5491   -0.1468 C   0  0  0  0  0  0  0  0  0  0  0  0
    0.2815    0.1880   -0.1480 C   0  0  0  0  0  0  0  0  0  0  0  0
    1.4099    2.3202   -0.2687 N   0  0  0  0  0  0  0  0  0  0  0  0
   -3.3808   -0.7188   -0.2589 C   0  0  0  0  0  0  0  0  0  0  0  0
   -3.8839   -0.8747    1.1776 C   0  0  0  0  0  0  0  0  0  0  0  0
   -5.1564   -1.6821    1.1793 C   0  0  0  0  0  0  0  0  0  0  0  0
   -5.0998   -3.0589    1.2945 C   0  0  0  0  0  0  0  0  0  0  0  0
   -6.2643   -3.8017    1.2959 C   0  0  0  0  0  0  0  0  0  0  0  0
   -7.4928   -3.1643    1.1819 C   0  0  0  0  0  0  0  0  0  0  0  0
   -7.5462   -1.7815    1.0668 C   0  0  0  0  0  0  0  0  0  0  0  0
   -6.3784   -1.0440    1.0712 C   0  0  0  0  0  0  0  0  0  0  0  0
    1.4294    3.5527    0.2762 C   0  0  0  0  0  0  0  0  0  0  0  0
    2.5354    4.3144    0.1789 O   0  0  0  0  0  0  0  0  0  0  0  0
    0.4488    3.9766    0.8553 O   0  0  0  0  0  0  0  0  0  0  0  0
   -8.6744   -3.9141    1.1825 N   0  0  0  0  0  0  0  0  0  0  0  0
   -8.7716   -5.0180    1.9495 C   0  0  0  0  0  0  0  0  0  0  0  0
   -9.9380   -5.6866    2.0224 O   0  0  0  0  0  0  0  0  0  0  0  0
   -7.8065   -5.4100    2.5753 O   0  0  0  0  0  0  0  0  0  0  0  0
    2.4931    5.4188    0.6909 N   0  0  0  0  0  0  0  0  0  0  0  0
    3.5121    6.1905    0.6326 C   0  0  0  0  0  0  0  0  0  0  0  0
   -9.9647   -6.6765    2.7316 N   0  0  0  0  0  0  0  0  0  0  0  0
  -11.0438   -7.3551    2.8427 C   0  0  0  0  0  0  0  0  0  0  0  0
    3.4806    7.5658    1.2617 C   0  0  0  0  0  0  0  0  0  0  0  0
    4.7093    7.7167    2.1647 C   0  0  0  0  0  0  0  0  0  0  0  0
    5.9737    7.4225    1.3557 C   0  0  0  0  0  0  0  0  0  0  0  0
    5.9609    5.9673    0.8845 C   0  0  0  0  0  0  0  0  0  0  0  0
    4.7812    5.7483   -0.0617 C   0  0  0  0  0  0  0  0  0  0  0  0
  -11.0984   -8.5875    3.7181 C   0  0  0  0  0  0  0  0  0  0  0  0
  -12.2995   -8.4623    4.6612 C   0  0  0  0  0  0  0  0  0  0  0  0
  -13.5665   -8.2155    3.8405 C   0  0  0  0  0  0  0  0  0  0  0  0
  -13.4553   -6.8794    3.1041 C   0  0  0  0  0  0  0  0  0  0  0  0
  -12.2992   -6.9418    2.1070 C   0  0  0  0  0  0  0  0  0  0  0  0
 16 18  2  0  0  0  0
  8  9  1  0  0  0  0
 13 19  1  0  0  0  0
  4  5  1  0  0  0  0
 19 20  1  0  0  0  0
  9 10  1  0  0  0  0
 20 21  1  0  0  0  0
  2  3  1  0  0  0  0
 20 22  2  0  0  0  0
 10 11  2  0  0  0  0
 17 23  1  0  0  0  0
  5  6  2  0  0  0  0
 23 24  2  0  0  0  0
 11 12  1  0  0  0  0
 21 25  1  0  0  0  0
  6  1  1  0  0  0  0
 25 26  2  0  0  0  0
 24 27  1  0  0  0  0
 12 13  2  0  0  0  0
  1  7  1  0  0  0  0
 13 14  1  0  0  0  0
  1  2  2  0  0  0  0
 14 15  2  0  0  0  0
 24 31  1  0  0  0  0
 27 28  1  0  0  0  0
 28 29  1  0  0  0  0
 29 30  1  0  0  0  0
 30 31  1  0  0  0  0
 26 32  1  0  0  0  0
 15 10  1  0  0  0  0
  3  4  2  0  0  0  0
  7 16  1  0  0  0  0
  4  8  1  0  0  0  0
 16 17  1  0  0  0  0
 26 36  1  0  0  0  0
 32 33  1  0  0  0  0
 33 34  1  0  0  0  0
 34 35  1  0  0  0  0
 35 36  1  0  0  0  0
M  END
$$$$
