m456.cdx
  corina  12080917093D 1   1.00000     0.00000 
CORINA 3.46 0026  05.08.2008
 33 36  0  0  0  0  0  0  0  0999 V2000
   -0.0169    1.3924    0.0097 C   0  0  0  0  0  0  0  0  0  0  0  0
    0.0021   -0.0041    0.0020 C   0  0  0  0  0  0  0  0  0  0  0  0
    1.2246   -0.6793   -0.0133 C   0  0  0  0  0  0  0  0  0  0  0  0
    2.4039    0.0361   -0.0207 C   0  0  0  0  0  0  0  0  0  0  0  0
    2.3776    1.4195   -0.0130 C   0  0  0  0  0  0  0  0  0  0  0  0
    1.1701    2.0951    0.0021 C   0  0  0  0  0  0  0  0  0  0  0  0
    3.6703    2.1942   -0.0207 C   0  0  0  0  0  0  0  0  0  0  0  0
    4.0881    2.4600   -1.4440 C   0  0  0  0  0  0  0  0  0  0  0  0
    3.6622    3.6110   -2.0832 C   0  0  0  0  0  0  0  0  0  0  0  0
    4.0408    3.8607   -3.3858 C   0  0  0  0  0  0  0  0  0  0  0  0
    4.8561    2.9486   -4.0597 C   0  0  0  0  0  0  0  0  0  0  0  0
    5.2822    1.7890   -3.4083 C   0  0  0  0  0  0  0  0  0  0  0  0
    4.9006    1.5548   -2.1037 C   0  0  0  0  0  0  0  0  0  0  0  0
    5.2352    3.1898   -5.3524 N   0  0  0  0  0  0  0  0  0  0  0  0
    6.4743    3.0056   -5.7135 C   0  0  0  0  0  0  0  0  0  0  0  0
   -1.1718   -0.7076    0.0099 N   0  0  0  0  0  0  0  0  0  0  0  0
   -1.3286   -1.7232   -0.7924 C   0  0  0  0  0  0  0  0  0  0  0  0
   -2.5897   -2.4790   -0.7840 C   0  0  0  0  0  0  0  0  0  0  0  0
   -0.2171   -2.1225   -1.7285 C   0  0  0  0  0  0  0  0  0  0  0  0
    7.4892    2.5271   -4.7074 C   0  0  0  0  0  0  0  0  0  0  0  0
    6.8816    3.2648   -7.1023 C   0  0  0  0  0  0  0  0  0  0  0  0
    5.9401    3.7105   -8.0428 C   0  0  0  0  0  0  0  0  0  0  0  0
    6.3358    3.9519   -9.3487 C   0  0  0  0  0  0  0  0  0  0  0  0
    7.6512    3.7539   -9.7222 C   0  0  0  0  0  0  0  0  0  0  0  0
    8.5842    3.3141   -8.7976 C   0  0  0  0  0  0  0  0  0  0  0  0
    8.2108    3.0742   -7.4929 C   0  0  0  0  0  0  0  0  0  0  0  0
   -2.7625   -3.5691   -1.6428 C   0  0  0  0  0  0  0  0  0  0  0  0
   -3.9473   -4.2728   -1.6293 C   0  0  0  0  0  0  0  0  0  0  0  0
   -4.9690   -3.9052   -0.7691 C   0  0  0  0  0  0  0  0  0  0  0  0
   -4.8122   -2.8302    0.0843 C   0  0  0  0  0  0  0  0  0  0  0  0
   -3.6255   -2.1145    0.0901 C   0  0  0  0  0  0  0  0  0  0  0  0
   -3.4703   -1.0585    0.9283 O   0  0  0  0  0  0  0  0  0  0  0  0
    4.6481    3.9038   -7.6751 O   0  0  0  0  0  0  0  0  0  0  0  0
  1  2  2  0  0  0
  2  3  1  0  0  0
  3  4  2  0  0  0
  4  5  1  0  0  0
  5  6  2  0  0  0
  6  1  1  0  0  0
  5  7  1  0  0  0
  7  8  1  0  0  0
  8  9  2  0  0  0
  9 10  1  0  0  0
 10 11  2  0  0  0
 11 12  1  0  0  0
 12 13  2  0  0  0
 13  8  1  0  0  0
 11 14  1  0  0  0
 14 15  2  0  0  0
  2 16  1  0  0  0
 16 17  2  0  0  0
 17 18  1  0  0  0
 17 19  1  0  0  0
 15 20  1  0  0  0
 15 21  1  0  0  0
 21 22  2  0  0  0
 22 23  1  0  0  0
 23 24  2  0  0  0
 24 25  1  0  0  0
 25 26  2  0  0  0
 26 21  1  0  0  0
 18 27  2  0  0  0
 27 28  1  0  0  0
 28 29  2  0  0  0
 29 30  1  0  0  0
 30 31  2  0  0  0
 31 18  1  0  0  0
 31 32  1  0  0  0
 22 33  1  0  0  0
M  END
$$$$
