m535.cdx
  corina  12080917093D 1   1.00000     0.00000 
CORINA 3.46 0026  05.08.2008
 25 28  0  0  0  0  0  0  0  0999 V2000
   -0.0167    1.3802    0.0096 C   0  0  0  0  0  0  0  0  0  0  0  0
    0.0021   -0.0041    0.0020 C   0  0  0  0  0  0  0  0  0  0  0  0
    1.1994   -0.6910   -0.0131 C   0  0  0  0  0  0  0  0  0  0  0  0
    2.4030    0.0049   -0.0208 C   0  0  0  0  0  0  0  0  0  0  0  0
    2.3795    1.4059   -0.0131 C   0  0  0  0  0  0  0  0  0  0  0  0
    1.1687    2.0885    0.0021 C   0  0  0  0  0  0  0  0  0  0  0  0
    3.7229   -0.4312   -0.0357 N   0  0  0  0  0  0  0  0  0  0  0  0
    4.5815    0.6025   -0.0384 C   0  0  0  0  0  0  0  0  0  0  0  0
    3.7934    1.8474   -0.0242 C   0  0  0  0  0  0  0  0  0  0  0  0
    5.7964    0.5243   -0.0504 O   0  0  0  0  0  0  0  0  0  0  0  0
    4.2461    3.0804   -0.0222 N   0  0  0  0  0  0  0  0  0  0  0  0
    5.5171    3.3009   -0.0331 N   0  0  0  0  0  0  0  0  0  0  0  0
    5.9966    4.6068   -0.0311 C   0  0  0  0  0  0  0  0  0  0  0  0
    4.1266   -1.8394   -0.0471 C   0  0  0  0  0  0  0  0  0  0  0  0
    4.2515   -2.3146   -1.4718 C   0  0  0  0  0  0  0  0  0  0  0  0
    5.4596   -2.2026   -2.1344 C   0  0  0  0  0  0  0  0  0  0  0  0
    5.5741   -2.6385   -3.4412 C   0  0  0  0  0  0  0  0  0  0  0  0
    4.4808   -3.1868   -4.0853 C   0  0  0  0  0  0  0  0  0  0  0  0
    3.2730   -3.2997   -3.4224 C   0  0  0  0  0  0  0  0  0  0  0  0
    3.1596   -2.8678   -2.1141 C   0  0  0  0  0  0  0  0  0  0  0  0
    5.1430    5.6192   -0.0179 N   0  0  0  0  0  0  0  0  0  0  0  0
    5.5556    6.8719   -0.0155 C   0  0  0  0  0  0  0  0  0  0  0  0
    6.9034    7.1739   -0.0272 C   0  0  0  0  0  0  0  0  0  0  0  0
    7.8315    6.1413   -0.0411 C   0  0  0  0  0  0  0  0  0  0  0  0
    7.3685    4.8375   -0.0371 C   0  0  0  0  0  0  0  0  0  0  0  0
  1  2  2  0      
  2  3  1  0      
  3  4  2  0      
  4  5  1  0      
  5  6  2  0      
  6  1  1  0      
  4  7  1  0      
  7  8  1  0      
  8  9  1  0      
  9  5  1  0      
  8 10  2  0      
  9 11  2  0      
 11 12  1  0      
 12 13  1  0      
  7 14  1  0      
 14 15  1  0      
 15 16  2  0      
 16 17  1  0      
 17 18  2  0      
 18 19  1  0      
 19 20  2  0      
 20 15  1  0      
 13 21  2  0      
 21 22  1  0      
 22 23  2  0      
 23 24  1  0      
 24 25  2  0      
 25 13  1  0      
M  END
$$$$
