
  corina  05251017003D 1   1.00000     0.00000 
CORINA 3.46 0026  05.08.2008
 39 41  0  0  0  0  0  0  0  0999 V2000
    0.3576    1.4409   -0.1344 C   0  0  0  0  0  0  0  0  0  0  0  0
    0.1848    0.1136   -0.1855 C   0  0  0  0  0  0  0  0  0  0  0  0
    1.4662   -0.6764    0.0379 C   0  0  2  0  0  0  0  0  0  0  0  0
    2.0238   -0.2890    1.4132 C   0  0  2  0  0  0  0  0  0  0  0  0
    2.2245    1.2390    1.4709 C   0  0  2  0  0  0  0  0  0  0  0  0
    1.7960    1.8585    0.1349 C   0  0  1  0  0  0  0  0  0  0  0  0
    3.4273   -0.8369    1.5539 C   0  0  0  0  0  0  0  0  0  0  0  0
    4.2880    0.1820    1.6699 N   0  0  0  0  0  0  0  0  0  0  0  0
    3.7206    1.3941    1.6357 C   0  0  0  0  0  0  0  0  0  0  0  0
    4.3118    2.4488    1.7225 O   0  0  0  0  0  0  0  0  0  0  0  0
    3.7250   -2.0120    1.5612 O   0  0  0  0  0  0  0  0  0  0  0  0
    2.6723    1.2687   -0.9778 C   0  0  0  0  0  0  0  0  0  0  0  0
    2.4754   -0.2481   -1.0352 C   0  0  0  0  0  0  0  0  0  0  0  0
   -1.1512   -0.5355   -0.4399 C   0  0  0  0  0  0  0  0  0  0  0  0
   -0.6531    2.3289   -0.3117 O   0  0  0  0  0  0  0  0  0  0  0  0
   -0.4888    2.8740    1.8240 O   0  0  0  0  0  0  0  0  0  0  0  0
   -1.0023    3.0747    0.7488 C   0  0  0  0  0  0  0  0  0  0  0  0
   -2.0347    4.1622    0.5982 C   0  0  0  0  0  0  0  0  0  0  0  0
    1.2062   -2.1035   -0.0261 O   0  0  0  0  0  0  0  0  0  0  0  0
    0.5803   -1.8460   -2.1298 O   0  0  0  0  0  0  0  0  0  0  0  0
    0.7382   -2.5862   -1.1879 C   0  0  0  0  0  0  0  0  0  0  0  0
    0.4096   -4.0512   -1.3175 C   0  0  0  0  0  0  0  0  0  0  0  0
    1.3698   -0.6328    2.2146 H   0  0  0  0  0  0  0  0  0  0  0  0
    1.6752    1.6790    2.3032 H   0  0  0  0  0  0  0  0  0  0  0  0
    1.8813    2.9446    0.1696 H   0  0  0  0  0  0  0  0  0  0  0  0
    5.2440    0.0526    1.7709 H   0  0  0  0  0  0  0  0  0  0  0  0
    2.3891    1.7080   -1.9344 H   0  0  0  0  0  0  0  0  0  0  0  0
    3.7193    1.4915   -0.7720 H   0  0  0  0  0  0  0  0  0  0  0  0
    3.4289   -0.7449   -0.8558 H   0  0  0  0  0  0  0  0  0  0  0  0
    2.0999   -0.5284   -2.0193 H   0  0  0  0  0  0  0  0  0  0  0  0
   -1.2641   -0.7284   -1.5068 H   0  0  0  0  0  0  0  0  0  0  0  0
   -1.2081   -1.4764    0.1074 H   0  0  0  0  0  0  0  0  0  0  0  0
   -1.9476    0.1287   -0.1045 H   0  0  0  0  0  0  0  0  0  0  0  0
   -2.3814    4.1934   -0.4347 H   0  0  0  0  0  0  0  0  0  0  0  0
   -2.8774    3.9571    1.2583 H   0  0  0  0  0  0  0  0  0  0  0  0
   -1.5918    5.1226    0.8619 H   0  0  0  0  0  0  0  0  0  0  0  0
    0.6148   -4.5545   -0.3726 H   0  0  0  0  0  0  0  0  0  0  0  0
   -0.6447   -4.1662   -1.5689 H   0  0  0  0  0  0  0  0  0  0  0  0
    1.0211   -4.4925   -2.1045 H   0  0  0  0  0  0  0  0  0  0  0  0
  1  2  2  0      
  6  1  1  0      
  1 15  1  0      
  2  3  1  0      
  2 14  1  0      
  3  4  1  0      
 13  3  1  0      
  3 19  1  0      
  4  5  1  0      
  4  7  1  0      
  4 23  1  0      
  5  6  1  0      
  9  5  1  0      
  5 24  1  0      
  6 12  1  0      
  6 25  1  0      
  7  8  1  0      
  7 11  2  0      
  8  9  1  0      
  8 26  1  0      
  9 10  2  0      
 12 13  1  0      
 12 27  1  0      
 12 28  1  0      
 13 29  1  0      
 13 30  1  0      
 14 31  1  0      
 14 32  1  0      
 14 33  1  0      
 15 17  1  0      
 16 17  2  0      
 17 18  1  0      
 18 34  1  0      
 18 35  1  0      
 18 36  1  0      
 19 21  1  0      
 20 21  2  0      
 21 22  1  0      
 22 37  1  0      
 22 38  1  0      
 22 39  1  0      
M  END
$$$$
