Untitled Document-1
  corina  05251017003D 1   1.00000     0.00000 
CORINA 3.46 0026  05.08.2008
 22 24  0  0  0  0  0  0  0  0999 V2000
   -0.0312    1.3281   -0.0594 C   0  0  0  0  0  0  0  0  0  0  0  0
    0.0109   -0.0003   -0.2251 C   0  0  0  0  0  0  0  0  0  0  0  0
    1.4042   -0.5905   -0.0630 C   0  0  0  0  0  0  0  0  0  0  0  0
    1.9039   -0.2377    1.3435 C   0  0  0  0  0  0  0  0  0  0  0  0
    1.8567    1.2921    1.5335 C   0  0  0  0  0  0  0  0  0  0  0  0
    1.3237    1.9468    0.2530 C   0  0  0  0  0  0  0  0  0  0  0  0
    0.9161   -0.7527    2.3676 C   0  0  0  0  0  0  0  0  0  0  0  0
    0.3910    0.2835    3.0331 N   0  0  0  0  0  0  0  0  0  0  0  0
    0.8488    1.4806    2.6462 C   0  0  0  0  0  0  0  0  0  0  0  0
    0.5095    2.5466    3.1133 O   0  0  0  0  0  0  0  0  0  0  0  0
    0.6431   -1.9188    2.5553 O   0  0  0  0  0  0  0  0  0  0  0  0
    2.2743    1.6028   -0.9011 C   0  0  0  0  0  0  0  0  0  0  0  0
    2.3228    0.0846   -1.0897 C   0  0  0  0  0  0  0  0  0  0  0  0
   -1.2056   -0.8314   -0.5419 C   0  0  0  0  0  0  0  0  0  0  0  0
   -1.1727    2.0542   -0.1656 O   0  0  0  0  0  0  0  0  0  0  0  0
   -0.2923    3.0997   -1.9026 O   0  0  0  0  0  0  0  0  0  0  0  0
   -1.2478    2.9264   -1.1837 C   0  0  0  0  0  0  0  0  0  0  0  0
   -2.5240    3.6892   -1.4298 C   0  0  0  0  0  0  0  0  0  0  0  0
    1.3762   -2.0301   -0.2507 O   0  0  0  0  0  0  0  0  0  0  0  0
    3.5559   -2.0717    0.1104 O   0  0  0  0  0  0  0  0  0  0  0  0
    2.5483   -2.6787   -0.1655 C   0  0  0  0  0  0  0  0  0  0  0  0
    2.6074   -4.1639   -0.4140 C   0  0  0  0  0  0  0  0  0  0  0  0
  1  2  2  0      
  2  3  1  0      
  3  4  1  0      
  4  5  1  0      
  5  6  1  0      
  6  1  1  0      
  4  7  1  0      
  7  8  1  0      
  8  9  1  0      
  9  5  1  0      
  9 10  2  0      
  7 11  2  0      
  6 12  1  0      
 12 13  1  0      
 13  3  1  0      
  2 14  1  0      
  1 15  1  0      
 15 17  1  0      
 16 17  2  0      
 17 18  1  0      
  3 19  1  0      
 19 21  1  0      
 20 21  2  0      
 21 22  1  0      
M  STY  1   1 SUP
M  SLB  1   1   1
M  SAL   1  4  15  16  17  18
M  SBL   1  1  17
M  SMT   1 ^OAc
M  SBV   1  17    0.7145   -0.4125
M  STY  1   2 SUP
M  SLB  1   2   2
M  SAL   2  4  19  20  21  22
M  SBL   2  1  21
M  SMT   2 OAc
M  SBV   2  21    0.0000    0.8250
M  END
$$$$
