m524.cdx
  corina  12080917093D 1   1.00000     0.00000 
CORINA 3.46 0026  05.08.2008
 25 28  0  0  0  0  0  0  0  0999 V2000
   -0.0188    1.5375    0.0105 C   0  0  0  0  0  0  0  0  0  0  0  0
    0.0021   -0.0041    0.0020 C   0  0  0  0  0  0  0  0  0  0  0  0
    1.3308   -0.3801    0.6464 C   0  0  0  0  0  0  0  0  0  0  0  0
    2.1625    0.6609    0.6472 C   0  0  0  0  0  0  0  0  0  0  0  0
    1.4863    1.8687   -0.0021 C   0  0  0  0  0  0  0  0  0  0  0  0
    2.0886   -1.7901    1.3904 S   0  0  0  0  0  0  0  0  0  0  0  0
    3.5675   -0.8959    1.6942 C   0  0  0  0  0  0  0  0  0  0  0  0
    3.4221    0.3926    1.2311 C   0  0  0  0  0  0  0  0  0  0  0  0
    4.6720   -1.3921    2.2884 N   0  0  0  0  0  0  0  0  0  0  0  0
    4.6954   -2.6396    2.6908 C   0  0  0  0  0  0  0  0  0  0  0  0
    5.8927   -3.1775    3.3349 C   0  0  0  0  0  0  0  0  0  0  0  0
    7.0223   -2.3750    3.5298 C   0  0  0  0  0  0  0  0  0  0  0  0
    8.1597   -2.8967    4.1450 C   0  0  0  0  0  0  0  0  0  0  0  0
    8.2154   -4.1853    4.5726 C   0  0  0  0  0  0  0  0  0  0  0  0
    7.1162   -5.0484    4.4090 C   0  0  0  0  0  0  0  0  0  0  0  0
    5.9348   -4.5665    3.7962 C   0  0  0  0  0  0  0  0  0  0  0  0
    7.0109   -1.0832    3.1177 O   0  0  0  0  0  0  0  0  0  0  0  0
    7.1655   -6.3819    4.8487 C   0  0  0  0  0  0  0  0  0  0  0  0
    6.0825   -7.1895    4.6744 C   0  0  0  0  0  0  0  0  0  0  0  0
    4.9245   -6.7138    4.0654 C   0  0  0  0  0  0  0  0  0  0  0  0
    4.8408   -5.4226    3.6333 C   0  0  0  0  0  0  0  0  0  0  0  0
    4.4814    1.3983    1.3335 C   0  0  0  0  0  0  0  0  0  0  0  0
    5.2935    1.5199    0.4360 O   0  0  0  0  0  0  0  0  0  0  0  0
    4.5566    2.1902    2.4231 O   0  0  0  0  0  0  0  0  0  0  0  0
    5.6324    3.1648    2.4566 C   0  0  0  0  0  0  0  0  0  0  0  0
  1  2  1  0      
  2  3  1  0      
  3  4  2  0      
  4  5  1  0      
  5  1  1  0      
  3  6  1  0      
  6  7  1  0      
  7  8  2  0      
  8  4  1  0      
  7  9  1  0      
  9 10  2  0      
 10 11  1  0      
 11 12  2  0      
 12 13  1  0      
 13 14  2  0      
 14 15  1  0      
 15 16  2  0      
 16 11  1  0      
 12 17  1  0      
 15 18  1  0      
 18 19  2  0      
 19 20  1  0      
 20 21  2  0      
 21 16  1  0      
  8 22  1  0      
 22 23  2  0      
 22 24  1  0      
 24 25  1  0      
M  STY  1   1 SUP
M  SLB  1   1   1
M  SAL   1  4  22  23  24  25
M  SBL   1  1  25
M  SMT   1 COOMe
M  SBV   1  25   -0.6674   -0.4849
M  END
$$$$
