
  corina  12080917093D 1   1.00000     0.00000 
CORINA 3.46 0026  05.08.2008
 22 24  0  0  0  0  0  0  0  0  1 V2000
    1.6091    2.3978    1.3809 C   0  0  0  0  0  0  0  0  0  0  0  0
    1.3527    1.0405    1.4549 C   0  0  0  0  0  0  0  0  0  0  0  0
    2.3320    0.1375    1.1083 C   0  0  0  0  0  0  0  0  0  0  0  0
    3.5964    0.5774    0.6778 C   0  0  0  0  0  0  0  0  0  0  0  0
    3.8485    1.9457    0.5972 C   0  0  0  0  0  0  0  0  0  0  0  0
    2.8432    2.8447    0.9566 C   0  0  0  0  0  0  0  0  0  0  0  0
    4.4954   -0.3958    0.3730 N   0  0  0  0  0  0  0  0  0  0  0  0
    5.3082   -0.3888   -0.6378 C   0  0  0  0  0  0  0  0  0  0  0  0
    5.4085    0.7981   -1.5141 C   0  0  0  0  0  0  0  0  0  0  0  0
    5.7837    2.0662   -0.8563 C   0  0  0  0  0  0  0  0  0  0  0  0
    5.0501    2.5057    0.1716 N   0  0  0  0  0  0  0  0  0  0  0  0
    6.1425   -1.5783   -0.9161 C   0  0  0  0  0  0  0  0  0  0  0  0
    6.0554   -2.7032   -0.0945 C   0  0  0  0  0  0  0  0  0  0  0  0
    6.8362   -3.8092   -0.3595 C   0  0  0  0  0  0  0  0  0  0  0  0
    7.7043   -3.8049   -1.4369 C   0  0  0  0  0  0  0  0  0  0  0  0
    7.7958   -2.6928   -2.2550 C   0  0  0  0  0  0  0  0  0  0  0  0
    7.0160   -1.5826   -2.0047 C   0  0  0  0  0  0  0  0  0  0  0  0
    6.7455    2.7018   -1.2445 O   0  0  0  0  0  0  0  0  0  0  0  0
    5.1675    0.7259   -2.8552 C   0  0  0  0  0  0  0  0  0  0  0  0
    4.9643    1.8654   -3.5728 N   0  0  0  0  0  0  0  0  0  0  0  0
    4.8521    3.1540   -2.8850 C   0  0  0  0  0  0  0  0  0  0  0  0
    4.8578    1.8025   -5.0326 C   0  0  0  0  0  0  0  0  0  0  0  0
  1  2  2  0  0  0  0
  2  3  1  0  0  0  0
  3  4  2  0  0  0  0
  4  5  1  0  0  0  0
  5  6  2  0  0  0  0
  1  6  1  0  0  0  0
  4  7  1  0  0  0  0
  7  8  2  0  0  0  0
  8  9  1  0  0  0  0
  9 10  1  0  0  0  0
 10 11  1  0  0  0  0
  5 11  1  0  0  0  0
  8 12  1  0  0  0  0
 12 13  2  0  0  0  0
 13 14  1  0  0  0  0
 14 15  2  0  0  0  0
 15 16  1  0  0  0  0
 16 17  2  0  0  0  0
 12 17  1  0  0  0  0
 10 18  2  0  0  0  0
  9 19  2  0  0  0  0
 19 20  1  0  0  0  0
 20 21  1  0  0  0  0
 20 22  1  0  0  0  0
M  END
$$$$
