Molbank-00-76.mol
  corina  12080917093D 1   1.00000     0.00000 
CORINA 3.46 0026  05.08.2008
 22 24  0  0  0  0  0  0  0  0999 V2000
    3.7990    0.9224    4.5658 C   0  0  0  0  0  0  0  0  0  0  0  0
    4.3626    2.1022    4.1176 C   0  0  0  0  0  0  0  0  0  0  0  0
    4.7070    2.2340    2.7878 C   0  0  0  0  0  0  0  0  0  0  0  0
    4.4915    1.1913    1.8976 C   0  0  0  0  0  0  0  0  0  0  0  0
    3.9400    0.0113    2.3447 C   0  0  0  0  0  0  0  0  0  0  0  0
    3.5894   -0.1167    3.6829 C   0  0  0  0  0  0  0  0  0  0  0  0
    4.8652    1.4105    0.4531 C   0  0  0  0  0  0  0  0  0  0  0  0
    4.8214    0.1339   -0.2679 N   0  0  0  0  0  0  0  0  0  0  0  0
    3.6656   -0.7438   -0.0206 C   0  0  0  0  0  0  0  0  0  0  0  0
    3.7066   -1.1737    1.4450 C   0  0  0  0  0  0  0  0  0  0  0  0
    3.5274    0.8128    5.6053 H   0  0  0  0  0  0  0  0  0  0  0  0
    4.5325    2.9176    4.8052 H   0  0  0  0  0  0  0  0  0  0  0  0
    4.1619    2.1081   -0.0017 H   0  0  0  0  0  0  0  0  0  0  0  0
    5.8112   -0.2254   -1.1327 C   0  0  0  0  0  0  0  0  0  0  0  0
    5.8032   -1.6058   -1.7333 C   0  0  0  0  0  0  0  0  0  0  0  0
    7.2415   -2.0451   -2.0215 C   0  0  0  0  0  0  0  0  0  0  0  0
    7.8953   -1.0192   -2.9526 C   0  0  0  0  0  0  0  0  0  0  0  0
    7.8230    0.3432   -2.3128 C   0  0  0  0  0  0  0  0  0  0  0  0
    6.7789    0.6651   -1.4401 C   0  0  0  0  0  0  0  0  0  0  0  0
    8.6771    1.1713   -2.5613 O   0  0  0  0  0  0  0  0  0  0  0  0
    8.0267   -2.1212   -0.7106 C   0  0  0  0  0  0  0  0  0  0  0  0
    7.2325   -3.4179   -2.6970 C   0  0  0  0  0  0  0  0  0  0  0  0
  1  2  2  0  0  0  0
  2  3  1  0  0  0  0
  3  4  2  0  0  0  0
  4  5  1  0  0  0  0
  5  6  2  0  0  0  0
  1  6  1  0  0  0  0
  4  7  1  0  0  0  0
  7  8  1  0  0  0  0
  8  9  1  0  0  0  0
  9 10  1  0  0  0  0
  5 10  1  0  0  0  0
  1 11  1  0  0  0  0
  2 12  1  0  0  0  0
  7 13  1  0  0  0  0
  8 14  1  0  0  0  0
 14 15  1  0  0  0  0
 15 16  1  0  0  0  0
 16 17  1  0  0  0  0
 17 18  1  0  0  0  0
 18 19  1  0  0  0  0
 14 19  2  0  0  0  0
 18 20  2  0  0  0  0
 16 21  1  0  0  0  0
 16 22  1  0  0  0  0
M  END
$$$$
