4-Chloro-2,3,5-trifluorobenzoic acid.cdx
  corina  11041516073D 1   1.00000     0.00000 
CORINA 3.60 0026  08.12.2014
 13 13  0  0  0  0  0  0  0  0999 V2000
   -0.0167    1.3807    0.0096 C   0  0  0  0  0  0  0  0  0  0  0  0
    0.0021   -0.0041    0.0020 C   0  0  0  0  0  0  0  0  0  0  0  0
    1.2093   -0.6820   -0.0132 C   0  0  0  0  0  0  0  0  0  0  0  0
    2.4096    0.0356   -0.0209 C   0  0  0  0  0  0  0  0  0  0  0  0
    2.3817    1.4331   -0.0131 C   0  0  0  0  0  0  0  0  0  0  0  0
    1.1721    2.0968    0.0021 C   0  0  0  0  0  0  0  0  0  0  0  0
    1.1450    3.4475    0.0092 F   0  0  0  0  0  0  0  0  0  0  0  0
   -1.5338    2.2245    0.0214 Cl  0  0  0  0  0  0  0  0  0  0  0  0
   -1.1592   -0.6945    0.0099 F   0  0  0  0  0  0  0  0  0  0  0  0
    1.2276   -2.0328   -0.0202 F   0  0  0  0  0  0  0  0  0  0  0  0
    3.6998   -0.6793   -0.0366 C   0  0  0  0  0  0  0  0  0  0  0  0
    3.7212   -1.8941   -0.0429 O   0  0  0  0  0  0  0  0  0  0  0  0
    4.8546    0.0148   -0.0439 O   0  0  0  0  0  0  0  0  0  0  0  0
  1  2  2  0      
  2  3  1  0      
  3  4  2  0      
  4  5  1  0      
  5  6  2  0      
  6  1  1  0      
  6  7  1  0      
  1  8  1  0      
  2  9  1  0      
  3 10  1  0      
  4 11  1  0      
 11 12  2  0      
 11 13  1  0      
M  STY  1   1 SUP
M  SLB  1   1   1
M  SAL   1  3  11  12  13
M  SBL   1  1  11
M  SMT   1 COOH
M  SBV   1 11  -13.8696    9.5349
M  END
$$$$
