m512-1.cdx
  corina  12080917093D 1   1.00000     0.00000 
CORINA 3.46 0026  05.08.2008
 16 17  0  0  0  0  0  0  0  0999 V2000
   -0.0167    1.3768    0.0096 C   0  0  0  0  0  0  0  0  0  0  0  0
    0.0021   -0.0041    0.0020 C   0  0  0  0  0  0  0  0  0  0  0  0
    1.2081   -0.6806   -0.0127 C   0  0  0  0  0  0  0  0  0  0  0  0
    2.3988    0.0226   -0.0203 C   0  0  0  0  0  0  0  0  0  0  0  0
    2.3870    1.4035   -0.0132 C   0  0  0  0  0  0  0  0  0  0  0  0
    1.1775    2.0861    0.0020 C   0  0  0  0  0  0  0  0  0  0  0  0
    1.2247   -2.1875   -0.0199 C   0  0  0  0  0  0  0  0  0  0  0  0
    1.1620    3.4859    0.0088 N   0  0  0  0  0  0  0  0  0  0  0  0
    0.0407    4.2366    0.0234 C   0  0  0  0  0  0  0  0  0  0  0  0
    0.5296    5.6724    0.0253 C   0  0  0  0  0  0  0  0  0  0  0  0
    2.0375    5.5337    0.0097 C   0  0  0  0  0  0  0  0  0  0  0  0
    2.3008    4.2854    0.0072 N   0  0  0  0  0  0  0  0  0  0  0  0
    3.0395    6.6594    0.0045 C   0  0  0  0  0  0  0  0  0  0  0  0
    0.0508    6.3974   -1.2061 C   0  0  0  0  0  0  0  0  0  0  0  0
   -1.1083    3.8478    0.0324 O   0  0  0  0  0  0  0  0  0  0  0  0
   -0.6257    7.3917   -1.0966 O   0  0  0  0  0  0  0  0  0  0  0  0
  1  2  2  0      
  2  3  1  0      
  3  4  2  0      
  4  5  1  0      
  5  6  2  0      
  6  1  1  0      
  3  7  1  0      
  6  8  1  0      
  8  9  1  0      
  9 10  1  0      
 10 11  1  0      
 11 12  2  0      
 12  8  1  0      
 11 13  1  0      
 10 14  1  0      
  9 15  2  0      
 14 16  2  0      
M  END
$$$$
