m570.mol
  corina  12080917093D 1   1.00000     0.00000 
CORINA 3.46 0026  05.08.2008
 25 27  0  0  0  0  0  0  0  0999 V2000
   -0.0164    1.3614    0.0095 C   0  0  0  0  0  0  0  0  0  0  0  0
    0.0021   -0.0041    0.0020 C   0  0  0  0  0  0  0  0  0  0  0  0
    1.2083   -0.6960   -0.0132 C   0  0  0  0  0  0  0  0  0  0  0  0
    2.4227   -0.0004   -0.0210 C   0  0  0  0  0  0  0  0  0  0  0  0
    2.4145    1.4009   -0.0135 C   0  0  0  0  0  0  0  0  0  0  0  0
    1.1854    2.0811    0.0019 C   0  0  0  0  0  0  0  0  0  0  0  0
    3.5697    2.0976   -0.0212 O   0  0  0  0  0  0  0  0  0  0  0  0
    3.5787    3.4397   -0.0145 C   0  0  0  0  0  0  0  0  0  0  0  0
    2.3831    4.1873    0.0009 C   0  0  0  0  0  0  0  0  0  0  0  0
    1.1859    3.5459    0.0098 C   0  0  0  0  0  0  0  0  0  0  0  0
    4.6460    4.0265   -0.0216 O   0  0  0  0  0  0  0  0  0  0  0  0
    3.6998   -0.7356   -0.0367 C   0  0  0  0  0  0  0  0  0  0  0  0
    1.2078   -2.0530   -0.0200 O   0  0  0  0  0  0  0  0  0  0  0  0
    4.3650   -1.1181    1.2604 C   0  0  0  0  0  0  0  0  0  0  0  0
    4.2516   -1.0537   -1.1674 N   0  0  0  0  0  0  0  0  0  0  0  0
    5.4657   -1.7526   -1.1823 N   0  0  0  0  0  0  0  0  0  0  0  0
    6.1699   -2.1585   -2.6251 S   0  0  0  0  0  0  0  0  0  0  0  0
    7.4399   -2.7126   -2.3100 O   0  0  0  0  0  0  0  0  0  0  0  0
    5.1817   -2.8550   -3.3719 O   0  0  0  0  0  0  0  0  0  0  0  0
    6.4834   -0.6575   -3.4930 C   0  0  0  0  0  0  0  0  0  0  0  0
    7.6879   -0.0005   -3.3248 C   0  0  0  0  0  0  0  0  0  0  0  0
    7.9339    1.1772   -4.0056 C   0  0  0  0  0  0  0  0  0  0  0  0
    6.9754    1.6976   -4.8550 C   0  0  0  0  0  0  0  0  0  0  0  0
    5.7712    1.0401   -5.0239 C   0  0  0  0  0  0  0  0  0  0  0  0
    5.5270   -0.1398   -4.3464 C   0  0  0  0  0  0  0  0  0  0  0  0
  1  2  2  0  0  0  0
  2  3  1  0  0  0  0
  3  4  2  0  0  0  0
  4  5  1  0  0  0  0
  5  6  2  0  0  0  0
  1  6  1  0  0  0  0
  5  7  1  0  0  0  0
  7  8  1  0  0  0  0
  8  9  1  0  0  0  0
  9 10  2  0  0  0  0
  6 10  1  0  0  0  0
  8 11  2  0  0  0  0
  4 12  1  0  0  0  0
  3 13  1  0  0  0  0
 12 14  1  0  0  0  0
 12 15  2  0  0  0  0
 15 16  1  0  0  0  0
 16 17  1  0  0  0  0
 17 18  2  0  0  0  0
 17 19  2  0  0  0  0
 17 20  1  0  0  0  0
 20 21  2  0  0  0  0
 21 22  1  0  0  0  0
 22 23  2  0  0  0  0
 23 24  1  0  0  0  0
 24 25  2  0  0  0  0
 20 25  1  0  0  0  0
M  END
$$$$
