m368.mol
  corina  12080917083D 1   1.00000     0.00000 
CORINA 3.46 0026  05.08.2008
 18 19  0  0  0  0  0  0  0  0999 V2000
   -0.0167    1.3786    0.0096 C   0  0  0  0  0  0  0  0  0  0  0  0
    0.0021   -0.0041    0.0020 C   0  0  0  0  0  0  0  0  0  0  0  0
    1.2064   -0.6798   -0.0132 C   0  0  0  0  0  0  0  0  0  0  0  0
    2.3998    0.0311   -0.0208 C   0  0  0  0  0  0  0  0  0  0  0  0
    2.3774    1.4200   -0.0131 C   0  0  0  0  0  0  0  0  0  0  0  0
    1.1695    2.0894    0.0021 C   0  0  0  0  0  0  0  0  0  0  0  0
    3.6196   -0.6492   -0.0357 N   0  0  0  0  0  0  0  0  0  0  0  0
    4.8773    0.1022   -0.0437 C   0  0  0  0  0  0  0  0  0  0  0  0
    6.0048   -0.8331   -0.0590 N   0  0  0  0  0  0  0  0  0  0  0  0
    6.6287   -1.3531   -1.2003 N   0  0  0  0  0  0  0  0  0  0  0  0
    7.5910   -2.1504   -0.8127 C   0  0  0  0  0  0  0  0  0  0  0  0
    7.6107   -2.1637    0.5858 C   0  0  0  0  0  0  0  0  0  0  0  0
    6.6295   -1.3413    1.0239 C   0  0  0  0  0  0  0  0  0  0  0  0
    6.2887   -1.0526    2.4632 C   0  0  0  0  0  0  0  0  0  0  0  0
    8.5177   -2.9217   -1.7168 C   0  0  0  0  0  0  0  0  0  0  0  0
   -1.3328    2.1126    0.0198 C   0  0  0  0  0  0  0  0  0  0  0  0
   -1.7425    2.3373    1.3703 O   0  0  0  0  0  0  0  0  0  0  0  0
   -2.9861    3.0304    1.4928 C   0  0  0  0  0  0  0  0  0  0  0  0
  1  2  2  0  0  0
  2  3  1  0  0  0
  3  4  2  0  0  0
  4  5  1  0  0  0
  5  6  2  0  0  0
  6  1  1  0  0  0
  4  7  1  0  0  0
  7  8  1  0  0  0
  8  9  1  0  0  0
  9 10  1  0  0  0
 10 11  2  0  0  0
 11 12  1  0  0  0
 12 13  2  0  0  0
 13  9  1  0  0  0
 13 14  1  0  0  0
 11 15  1  0  0  0
  1 16  1  0  0  0
 16 17  1  0  0  0
 17 18  1  0  0  0
M  END
$$$$
