
  corina  12080917093D 1   1.00000     0.00000 
CORINA 3.46 0026  05.08.2008
 19 20  0  0  0  0  0  0  0  0999 V2000
    0.5763    1.1243    0.8341 C   0  0  0  0  0  0  0  0  0  0  0  0
    0.1718   -0.0662    0.2299 C   0  0  0  0  0  0  0  0  0  0  0  0
    0.9459   -0.6415   -0.7779 C   0  0  0  0  0  0  0  0  0  0  0  0
    2.1035   -0.0421   -1.1784 C   0  0  0  0  0  0  0  0  0  0  0  0
    2.5161    1.1580   -0.5735 C   0  0  0  0  0  0  0  0  0  0  0  0
    1.7320    1.7327    0.4420 C   0  0  0  0  0  0  0  0  0  0  0  0
    3.7166    1.7848   -0.9848 C   0  0  0  0  0  0  0  0  0  0  0  0
    3.7471    3.1589   -1.1936 C   0  0  0  0  0  0  0  0  0  0  0  0
    5.0179    3.8963   -1.2758 C   0  0  0  0  0  0  0  0  0  0  0  0
    4.9683    5.2033   -1.4761 N   0  0  0  0  0  0  0  0  0  0  0  0
    3.8068    5.8476   -1.6018 C   0  0  0  0  0  0  0  0  0  0  0  0
    2.5101    3.9409   -1.3483 C   0  0  0  0  0  0  0  0  0  0  0  0
    2.6176    5.2460   -1.5384 N   0  0  0  0  0  0  0  0  0  0  0  0
    1.2781    3.3347   -1.2856 N   0  0  0  0  0  0  0  0  0  0  0  0
    3.8336    7.0554   -1.7848 O   0  0  0  0  0  0  0  0  0  0  0  0
    6.2220    3.2460   -1.1476 N   0  0  0  0  0  0  0  0  0  0  0  0
   -1.0042   -0.6802    0.6329 N   0  0  3  0  0  0  0  0  0  0  0  0
   -1.8192   -0.0787    1.6913 C   0  0  0  0  0  0  0  0  0  0  0  0
   -1.4317   -1.9305    0.0002 C   0  0  0  0  0  0  0  0  0  0  0  0
  1  2  2  0  0  0  0
  2  3  1  0  0  0  0
  3  4  2  0  0  0  0
  4  5  1  0  0  0  0
  5  6  2  0  0  0  0
  1  6  1  0  0  0  0
  5  7  1  0  0  0  0
  7  8  2  0  0  0  0
  8  9  1  0  0  0  0
  9 10  2  0  0  0  0
 10 11  1  0  0  0  0
 11 13  1  0  0  0  0
 13 12  2  0  0  0  0
  8 12  1  0  0  0  0
 12 14  1  0  0  0  0
 11 15  2  0  0  0  0
  9 16  1  0  0  0  0
  2 17  1  0  0  0  0
 17 18  1  0  0  0  0
 17 19  1  0  0  0  0
M  END
$$$$
