m377.cdx
  corina  12080917083D 1   1.00000     0.00000 
CORINA 3.46 0026  05.08.2008
 48 52  0  0  0  0  0  0  0  0999 V2000
    0.1253    1.5807   -0.0987 C   0  0  0  0  0  0  0  0  0  0  0  0
   -0.0708    0.2100   -0.0446 C   0  0  0  0  0  0  0  0  0  0  0  0
    1.0057   -0.6482    0.0424 C   0  0  0  0  0  0  0  0  0  0  0  0
    2.3038   -0.1377    0.0764 C   0  0  0  0  0  0  0  0  0  0  0  0
    2.5035    1.2577    0.0214 C   0  0  0  0  0  0  0  0  0  0  0  0
    1.4000    2.1072   -0.0664 C   0  0  0  0  0  0  0  0  0  0  0  0
    3.7670    1.7733    0.0541 N   0  0  0  0  0  0  0  0  0  0  0  0
    3.3727   -0.9822    0.1629 N   0  0  0  0  0  0  0  0  0  0  0  0
    3.3782   -1.9387    1.0501 C   0  0  0  0  0  0  0  0  0  0  0  0
    4.0500    2.7555    0.8648 C   0  0  0  0  0  0  0  0  0  0  0  0
    4.4746   -2.9183    1.0683 C   0  0  0  0  0  0  0  0  0  0  0  0
    5.3769    3.3873    0.8194 C   0  0  0  0  0  0  0  0  0  0  0  0
    6.3411    2.9352   -0.0954 C   0  0  0  0  0  0  0  0  0  0  0  0
    7.5969    3.5354   -0.1361 C   0  0  0  0  0  0  0  0  0  0  0  0
    7.8979    4.5753    0.7221 C   0  0  0  0  0  0  0  0  0  0  0  0
    6.9421    5.0325    1.6378 C   0  0  0  0  0  0  0  0  0  0  0  0
    5.6801    4.4422    1.6818 C   0  0  0  0  0  0  0  0  0  0  0  0
    4.4827   -3.9427    2.0166 C   0  0  0  0  0  0  0  0  0  0  0  0
    5.5252   -4.8680    2.0283 C   0  0  0  0  0  0  0  0  0  0  0  0
    6.5606   -4.7688    1.0907 C   0  0  0  0  0  0  0  0  0  0  0  0
    6.5538   -3.7553    0.1521 C   0  0  0  0  0  0  0  0  0  0  0  0
    5.5136   -2.8298    0.1284 C   0  0  0  0  0  0  0  0  0  0  0  0
    6.0495    1.9134   -0.9394 O   0  0  0  0  0  0  0  0  0  0  0  0
    8.5299    3.0964   -1.0229 O   0  0  0  0  0  0  0  0  0  0  0  0
    9.7972    3.7565   -1.0112 C   0  0  0  0  0  0  0  0  0  0  0  0
    5.5103   -1.8359   -0.7955 O   0  0  0  0  0  0  0  0  0  0  0  0
    7.5628   -3.6647   -0.7553 O   0  0  0  0  0  0  0  0  0  0  0  0
    8.5946   -4.6503   -0.6788 C   0  0  0  0  0  0  0  0  0  0  0  0
    7.2448    6.0611    2.4842 N   0  0  0  0  0  0  0  0  0  0  0  0
    8.4108    6.6110    2.4400 N   0  0  0  0  0  0  0  0  0  0  0  0
    8.7133    7.6392    3.2861 C   0  0  0  0  0  0  0  0  0  0  0  0
    5.5370   -5.8716    2.9550 N   0  0  0  0  0  0  0  0  0  0  0  0
    6.5016   -6.7280    2.9660 N   0  0  0  0  0  0  0  0  0  0  0  0
    6.5134   -7.7312    3.8923 C   0  0  0  0  0  0  0  0  0  0  0  0
    7.5581   -8.6608    3.9062 C   0  0  0  0  0  0  0  0  0  0  0  0
    7.5656   -9.6710    4.8424 C   0  0  0  0  0  0  0  0  0  0  0  0
    6.5371   -9.7676    5.7720 C   0  0  0  0  0  0  0  0  0  0  0  0
    5.4966   -8.8464    5.7618 C   0  0  0  0  0  0  0  0  0  0  0  0
    5.4839   -7.8289    4.8337 C   0  0  0  0  0  0  0  0  0  0  0  0
    9.9768    8.2370    3.2400 C   0  0  0  0  0  0  0  0  0  0  0  0
   10.2772    9.2738    4.0955 C   0  0  0  0  0  0  0  0  0  0  0  0
    9.3275    9.7256    5.0037 C   0  0  0  0  0  0  0  0  0  0  0  0
    8.0708    9.1345    5.0536 C   0  0  0  0  0  0  0  0  0  0  0  0
    7.7587    8.1016    4.1976 C   0  0  0  0  0  0  0  0  0  0  0  0
    6.5486  -10.7655    6.6928 O   0  0  0  0  0  0  0  0  0  0  0  0
    5.4609  -10.8064    7.6187 C   0  0  0  0  0  0  0  0  0  0  0  0
    9.6285   10.7478    5.8455 O   0  0  0  0  0  0  0  0  0  0  0  0
    8.6063   11.1627    6.7538 C   0  0  0  0  0  0  0  0  0  0  0  0
  1  2  2  0  0  0
  2  3  1  0  0  0
  3  4  2  0  0  0
  4  5  1  0  0  0
  5  6  2  0  0  0
  6  1  1  0  0  0
  5  7  1  0  0  0
  4  8  1  0  0  0
  8  9  2  0  0  0
  7 10  2  0  0  0
  9 11  1  0  0  0
 10 12  1  0  0  0
 12 13  2  0  0  0
 13 14  1  0  0  0
 14 15  2  0  0  0
 15 16  1  0  0  0
 16 17  2  0  0  0
 17 12  1  0  0  0
 11 18  2  0  0  0
 18 19  1  0  0  0
 19 20  2  0  0  0
 20 21  1  0  0  0
 21 22  2  0  0  0
 22 11  1  0  0  0
 13 23  1  0  0  0
 14 24  1  0  0  0
 24 25  1  0  0  0
 22 26  1  0  0  0
 21 27  1  0  0  0
 27 28  1  0  0  0
 16 29  1  0  0  0
 29 30  2  0  0  0
 30 31  1  0  0  0
 19 32  1  0  0  0
 32 33  2  0  0  0
 33 34  1  0  0  0
 34 35  2  0  0  0
 35 36  1  0  0  0
 36 37  2  0  0  0
 37 38  1  0  0  0
 38 39  2  0  0  0
 39 34  1  0  0  0
 31 40  2  0  0  0
 40 41  1  0  0  0
 41 42  2  0  0  0
 42 43  1  0  0  0
 43 44  2  0  0  0
 44 31  1  0  0  0
 37 45  1  0  0  0
 45 46  1  0  0  0
 42 47  1  0  0  0
 47 48  1  0  0  0
M  END
$$$$
