m489.mol
  corina  12080917093D 1   1.00000     0.00000 
CORINA 3.46 0026  05.08.2008
 26 28  0  0  0  0  0  0  0  0999 V2000
   -0.0042    1.7292    0.0403 C   0  0  0  0  0  0  0  0  0  0  0  0
    0.3148    0.4091   -0.3402 C   0  0  0  0  0  0  0  0  0  0  0  0
    1.6535    0.0284   -0.4459 C   0  0  0  0  0  0  0  0  0  0  0  0
    2.6528    0.9406   -0.1790 C   0  0  0  0  0  0  0  0  0  0  0  0
    2.3392    2.2379    0.1954 C   0  0  0  0  0  0  0  0  0  0  0  0
    1.0234    2.6358    0.3057 C   0  0  0  0  0  0  0  0  0  0  0  0
   -1.3083    2.1190    0.1429 N   0  0  0  0  0  0  0  0  0  0  0  0
   -0.6783   -0.4897   -0.6028 N   0  0  0  0  0  0  0  0  0  0  0  0
   -0.6705   -1.1626   -1.7207 C   0  0  0  0  0  0  0  0  0  0  0  0
   -1.6662   -2.2192   -1.9494 C   0  0  0  0  0  0  0  0  0  0  0  0
    0.3596   -0.8564   -2.7773 C   0  0  0  0  0  0  0  0  0  0  0  0
   -1.7223    2.7365    1.2152 C   0  0  0  0  0  0  0  0  0  0  0  0
   -3.0852    3.2843    1.2678 C   0  0  0  0  0  0  0  0  0  0  0  0
   -0.8030    2.8882    2.3997 C   0  0  0  0  0  0  0  0  0  0  0  0
   -2.6276   -2.5081   -0.9683 C   0  0  0  0  0  0  0  0  0  0  0  0
   -3.5616   -3.5062   -1.1955 C   0  0  0  0  0  0  0  0  0  0  0  0
   -3.5454   -4.2134   -2.3824 C   0  0  0  0  0  0  0  0  0  0  0  0
   -2.5985   -3.9325   -3.3536 C   0  0  0  0  0  0  0  0  0  0  0  0
   -1.6654   -2.9394   -3.1486 C   0  0  0  0  0  0  0  0  0  0  0  0
   -3.5335    3.9470    2.4151 C   0  0  0  0  0  0  0  0  0  0  0  0
   -4.8127    4.4579    2.4572 C   0  0  0  0  0  0  0  0  0  0  0  0
   -5.6576    4.3179    1.3684 C   0  0  0  0  0  0  0  0  0  0  0  0
   -5.2282    3.6652    0.2288 C   0  0  0  0  0  0  0  0  0  0  0  0
   -3.9432    3.1506    0.1650 C   0  0  0  0  0  0  0  0  0  0  0  0
   -3.5205    2.5092   -0.9539 O   0  0  0  0  0  0  0  0  0  0  0  0
   -2.6420   -1.8135    0.1975 O   0  0  0  0  0  0  0  0  0  0  0  0
  1  2  2  0  0  0
  2  3  1  0  0  0
  3  4  2  0  0  0
  4  5  1  0  0  0
  5  6  2  0  0  0
  6  1  1  0  0  0
  1  7  1  0  0  0
  2  8  1  0  0  0
  8  9  2  0  0  0
  9 10  1  0  0  0
  9 11  1  0  0  0
  7 12  2  0  0  0
 12 13  1  0  0  0
 12 14  1  0  0  0
 10 15  2  0  0  0
 15 16  1  0  0  0
 16 17  2  0  0  0
 17 18  1  0  0  0
 18 19  2  0  0  0
 19 10  1  0  0  0
 13 20  2  0  0  0
 20 21  1  0  0  0
 21 22  2  0  0  0
 22 23  1  0  0  0
 23 24  2  0  0  0
 24 13  1  0  0  0
 24 25  1  0  0  0
 15 26  1  0  0  0
M  END
$$$$
