
  corina  12080917093D 1   1.00000     0.00000 
CORINA 3.46 0026  05.08.2008
 14 15  0  0  0  0  0  0  0  0999 V2000
   -0.0163    1.3543    0.0095 N   0  0  3  0  0  0  0  0  0  0  0  0
    0.0021   -0.0041    0.0020 C   0  0  0  0  0  0  0  0  0  0  0  0
    1.2966   -0.3977   -0.0125 C   0  0  0  0  0  0  0  0  0  0  0  0
    2.0983    0.7548   -0.0139 C   0  0  0  0  0  0  0  0  0  0  0  0
    1.3106    1.8030   -0.0008 N   0  0  0  0  0  0  0  0  0  0  0  0
   -1.1603    2.1634    0.0195 C   0  0  0  0  0  0  0  0  0  0  0  0
   -1.0343    3.5462    0.0264 C   0  0  0  0  0  0  0  0  0  0  0  0
   -2.1638    4.3411    0.0305 C   0  0  0  0  0  0  0  0  0  0  0  0
   -3.4192    3.7611    0.0278 C   0  0  0  0  0  0  0  0  0  0  0  0
   -3.5479    2.3843    0.0214 C   0  0  0  0  0  0  0  0  0  0  0  0
   -2.4222    1.5841    0.0168 C   0  0  0  0  0  0  0  0  0  0  0  0
    3.4578    0.7797   -0.0272 O   0  0  0  0  0  0  0  0  0  0  0  0
    4.0831    2.0646   -0.0262 C   0  0  0  0  0  0  0  0  0  0  0  0
    1.9162   -2.1842   -0.0274 Br  0  0  0  0  0  0  0  0  0  0  0  0
  6  7  2  0  0  0  0
  2  3  2  0  0  0  0
  7  8  1  0  0  0  0
  1  2  1  0  0  0  0
  8  9  2  0  0  0  0
  3  4  1  0  0  0  0
  9 10  1  0  0  0  0
  5  1  1  0  0  0  0
 10 11  2  0  0  0  0
 11  6  1  0  0  0  0
  4 12  1  0  0  0  0
  1  6  1  0  0  0  0
 12 13  1  0  0  0  0
  4  5  2  0  0  0  0
  3 14  1  0  0  0  0
M  END
$$$$
