m572.mol
  corina  12080917093D 1   1.00000     0.00000 
CORINA 3.46 0026  05.08.2008
 16 18  0  0  0  0  0  0  0  0999 V2000
   -0.0166    1.3757    0.0096 C   0  0  0  0  0  0  0  0  0  0  0  0
    0.0021   -0.0041    0.0020 C   0  0  0  0  0  0  0  0  0  0  0  0
    1.1927   -0.7008   -0.0126 C   0  0  0  0  0  0  0  0  0  0  0  0
    2.4330   -0.0045   -0.0207 C   0  0  0  0  0  0  0  0  0  0  0  0
    2.4152    1.4566   -0.0127 C   0  0  0  0  0  0  0  0  0  0  0  0
    1.1774    2.1146    0.0022 C   0  0  0  0  0  0  0  0  0  0  0  0
    3.5581    2.1662   -0.0195 O   0  0  0  0  0  0  0  0  0  0  0  0
    3.5501    3.5083   -0.0119 C   0  0  0  0  0  0  0  0  0  0  0  0
    2.3444    4.2385    0.0039 C   0  0  0  0  0  0  0  0  0  0  0  0
    1.1564    3.5792    0.0102 C   0  0  0  0  0  0  0  0  0  0  0  0
    4.6097    4.1095   -0.0186 O   0  0  0  0  0  0  0  0  0  0  0  0
    1.5124   -2.0203   -0.0222 O   0  0  0  0  0  0  0  0  0  0  0  0
    2.9756   -2.0898   -0.0362 N   0  0  0  0  0  0  0  0  0  0  0  0
    3.4444   -0.9423   -0.0348 C   0  0  0  0  0  0  0  0  0  0  0  0
    4.9157   -0.6169   -0.0469 C   0  0  0  0  0  0  0  0  0  0  0  0
    3.4409   -2.8080    1.1504 O   0  0  0  0  0  0  0  0  0  0  0  0
  1  2  2  0  0  0  0
  2  3  1  0  0  0  0
  4  3  2  0  0  0  0
  4  5  1  0  0  0  0
  5  6  2  0  0  0  0
  1  6  1  0  0  0  0
  5  7  1  0  0  0  0
  7  8  1  0  0  0  0
  8  9  1  0  0  0  0
  9 10  2  0  0  0  0
  6 10  1  0  0  0  0
  8 11  2  0  0  0  0
  3 12  1  0  0  0  0
 12 13  1  0  0  0  0
 13 14  2  0  0  0  0
  4 14  1  0  0  0  0
 14 15  1  0  0  0  0
 13 16  1  0  0  0  0
M  END
$$$$
