
  corina  02131210073D 1   1.00000     0.00000 
CORINA 3.49 0024  01.06.2011
 22 24  0  0  0  0  0  0  0  0  1 V2000
   -0.0184    1.5073    0.0103 C   0  0  0  0  0  0  0  0  0  0  0  0
   -1.1364    2.2335    0.0308 C   0  0  0  0  0  0  0  0  0  0  0  0
    0.0021   -0.0041    0.0020 C   0  0  0  0  0  0  0  0  0  0  0  0
   -2.5326    1.6680    0.0472 C   0  0  0  0  0  0  0  0  0  0  0  0
   -1.3774   -0.5121    0.4360 C   0  0  0  0  0  0  0  0  0  0  0  0
   -2.4641    0.1938   -0.3708 C   0  0  0  0  0  0  0  0  0  0  0  0
    1.1431    2.3997    0.0040 C   0  0  0  0  0  0  0  0  0  0  0  0
    0.7388    3.6850    0.0161 N   0  0  0  0  0  0  0  0  0  0  0  0
   -0.7315    3.6830    0.0341 C   0  0  0  0  0  0  0  0  0  0  0  0
   -1.2712    4.3770   -1.1899 C   0  0  0  0  0  0  0  0  0  0  0  0
   -2.4157    5.1470   -1.0996 C   0  0  0  0  0  0  0  0  0  0  0  0
   -0.6187    4.2481   -2.4017 C   0  0  0  0  0  0  0  0  0  0  0  0
   -2.9076    5.7882   -2.2210 C   0  0  0  0  0  0  0  0  0  0  0  0
   -1.1106    4.8894   -3.5232 C   0  0  0  0  0  0  0  0  0  0  0  0
   -2.2548    5.6598   -3.4327 C   0  0  0  0  0  0  0  0  0  0  0  0
    2.3029    2.0341   -0.0094 O   0  0  0  0  0  0  0  0  0  0  0  0
   -2.7916    6.3580   -4.6556 C   0  0  0  0  0  0  0  0  0  0  0  0
    1.6047    4.8668    0.0152 C   0  0  0  0  0  0  0  0  0  0  0  0
    1.8916    5.2876   -1.4276 C   0  0  0  0  0  0  0  0  0  0  0  0
    2.7823    6.5033   -1.4285 C   0  0  0  0  0  0  0  0  0  0  0  0
    3.1498    6.9837   -0.3826 O   0  0  0  0  0  0  0  0  0  0  0  0
    3.1673    7.0523   -2.5913 O   0  0  0  0  0  0  0  0  0  0  0  0
  3  1  1  0  0  0  0
  4  2  1  0  0  0  0
  5  3  1  0  0  0  0
  6  4  1  0  0  0  0
  6  5  1  0  0  0  0
  7  1  1  0  0  0  0
  2  1  2  0  0  0  0
  8  7  1  0  0  0  0
  9  2  1  0  0  0  0
  9  8  1  0  0  0  0
 11 10  1  0  0  0  0
 12 10  2  0  0  0  0
 13 11  2  0  0  0  0
 14 12  1  0  0  0  0
 15 13  1  0  0  0  0
 15 14  2  0  0  0  0
  9 10  1  0  0  0  0
  7 16  2  0  0  0  0
 15 17  1  0  0  0  0
  8 18  1  0  0  0  0
 18 19  1  0  0  0  0
 21 20  2  0  0  0  0
 22 20  1  0  0  0  0
 19 20  1  0  0  0  0
M  END
$$$$
