
  corina  04021503383D 1   1.00000     0.00000 
CORINA 3.49 0023  12.04.2013
 19 18  0  0  0  0  0  0  0  0  3 V2000
   -2.6356    1.5608   -0.6839 Cl  0  0  0  0  0  0  0  0  0  0  0  0
   -1.0088    0.9762   -0.5244 C   0  0  0  0  0  0  0  0  0  0  0  0
    0.0489    1.8701   -0.5134 C   0  0  0  0  0  0  0  0  0  0  0  0
    1.3474    1.4125   -0.3809 C   0  0  0  0  0  0  0  0  0  0  0  0
    1.5971    0.0609   -0.2588 C   0  0  0  0  0  0  0  0  0  0  0  0
    5.0250   -4.0124   -0.8877 C   0  0  0  0  0  0  0  0  0  0  0  0
    3.8318   -3.8317   -1.8282 C   0  0  0  0  0  0  0  0  0  0  0  0
    0.4210   -5.3925   -1.8169 C   0  0  0  0  0  0  0  0  0  0  0  0
    1.5532   -4.4562   -2.2437 C   0  0  0  0  0  0  0  0  0  0  0  0
    3.4641   -6.5128   -2.7067 C   0  0  0  0  0  0  0  0  0  0  0  0
    3.0802   -6.0478   -1.3005 C   0  0  0  0  0  0  0  0  0  0  0  0
    2.6989   -4.6297   -1.3408 N   0  3  0  0  0  0  0  0  0  0  0  0
    2.3303   -4.1833    0.0093 C   0  0  0  0  0  0  0  0  0  0  0  0
    2.0617   -2.7432   -0.0089 N   0  0  0  0  0  0  0  0  0  0  0  0
   -0.1287   -3.0826   -0.1470 O   0  0  0  0  0  0  0  0  0  0  0  0
    0.7972   -2.2951   -0.1381 C   0  0  0  0  0  0  0  0  0  0  0  0
    0.5363   -0.8457   -0.2690 C   0  0  0  0  0  0  0  0  0  0  0  0
   -0.7722   -0.3785   -0.4030 C   0  0  0  0  0  0  0  0  0  0  0  0
   10.0250    6.8701    5.0093 Cl  0  5  0  0  0  0  0  0  0  0  0  0
  2 18  2  0
 18 17  1  0
 17  5  2  0
  5  4  1  0
  4  3  2  0
  3  2  1  0
  2  1  1  0
 17 16  1  0
 16 14  1  0
 14 13  1  0
 13 12  1  0
 12  7  1  0
  7  6  1  0
 12  9  1  0
  9  8  1  0
 12 11  1  0
 11 10  1  0
 16 15  2  0
M  CHG  1  12   1
M  CHG  1  19  -1
M  END
$$$$
