m515.cdx
  corina  12080917093D 1   1.00000     0.00000 
CORINA 3.46 0026  05.08.2008
 39 41  0  0  0  0  0  0  0  0999 V2000
   -0.1222    0.7520    0.7204 C   0  0  0  0  0  0  0  0  0  0  0  0
    0.1234   -0.6203    0.6462 C   0  0  0  0  0  0  0  0  0  0  0  0
    1.4237   -1.1065    0.6733 C   0  0  0  0  0  0  0  0  0  0  0  0
    2.4882   -0.2251    0.7744 C   0  0  0  0  0  0  0  0  0  0  0  0
    2.2313    1.1582    0.8484 C   0  0  0  0  0  0  0  0  0  0  0  0
    0.9147    1.6327    0.8202 C   0  0  0  0  0  0  0  0  0  0  0  0
    3.7554   -0.6883    0.8020 O   0  0  0  0  0  0  0  0  0  0  0  0
    4.8240    0.1322    0.8999 C   0  0  0  0  0  0  0  0  0  0  0  0
    4.6606    1.5382    0.9793 C   0  0  0  0  0  0  0  0  0  0  0  0
    3.3625    2.0870    0.9554 C   0  0  0  0  0  0  0  0  0  0  0  0
    6.0823   -0.3995    0.9233 C   0  0  0  0  0  0  0  0  0  0  0  0
    7.2039    0.4478    1.0256 C   0  0  0  0  0  0  0  0  0  0  0  0
    7.0309    1.8531    1.1044 C   0  0  0  0  0  0  0  0  0  0  0  0
    5.7862    2.3834    1.0824 C   0  0  0  0  0  0  0  0  0  0  0  0
    3.1490    3.5410    1.0350 C   0  0  0  0  0  0  0  0  0  0  0  0
   -0.9424   -1.5070    0.5447 N   0  0  0  0  0  0  0  0  0  0  0  0
   -2.3167   -1.0003    0.5161 C   0  0  0  0  0  0  0  0  0  0  0  0
   -0.6913   -2.9482    0.4665 C   0  0  0  0  0  0  0  0  0  0  0  0
   -2.7322   -0.7349   -0.9323 C   0  0  0  0  0  0  0  0  0  0  0  0
   -0.6667   -3.5389    1.8776 C   0  0  0  0  0  0  0  0  0  0  0  0
    8.4268   -0.0716    1.0487 N   0  3  0  0  0  0  0  0  0  0  0  0
    9.5840    0.7904    1.3016 C   0  0  0  0  0  0  0  0  0  0  0  0
    8.6177   -1.5062    0.8211 C   0  0  0  0  0  0  0  0  0  0  0  0
   10.2631    0.3632    2.6044 C   0  0  0  0  0  0  0  0  0  0  0  0
    9.4696   -1.7148   -0.4325 C   0  0  0  0  0  0  0  0  0  0  0  0
    2.7295    4.1322    2.2445 C   0  0  0  0  0  0  0  0  0  0  0  0
    2.5318    5.5103    2.3033 C   0  0  0  0  0  0  0  0  0  0  0  0
    2.7462    6.2870    1.1831 C   0  0  0  0  0  0  0  0  0  0  0  0
    3.1581    5.7071   -0.0069 C   0  0  0  0  0  0  0  0  0  0  0  0
    3.3659    4.3469   -0.0863 C   0  0  0  0  0  0  0  0  0  0  0  0
    2.5008    3.2962    3.4409 C   0  0  0  0  0  0  0  0  0  0  0  0
    1.3194    3.3251    4.0585 C   0  0  0  0  0  0  0  0  0  0  0  0
    3.4944    2.4980    3.9120 O   0  0  0  0  0  0  0  0  0  0  0  0
    3.2037    1.7168    5.0727 C   0  0  0  0  0  0  0  0  0  0  0  0
    4.4333    0.8887    5.4512 C   0  0  0  0  0  0  0  0  0  0  0  0
    4.1220    0.0523    6.6940 C   0  0  0  0  0  0  0  0  0  0  0  0
    5.3516   -0.7758    7.0725 C   0  0  0  0  0  0  0  0  0  0  0  0
    5.0404   -1.6122    8.3153 C   0  0  0  0  0  0  0  0  0  0  0  0
   15.2631   11.2870   13.3153 Cl  0  5  0  0  0  0  0  0  0  0  0  0
  1  2  2  0      
  2  3  1  0      
  3  4  2  0      
  4  5  1  0      
  5  6  2  0      
  6  1  1  0      
  4  7  1  0      
  7  8  1  0      
  8  9  1  0      
  9 10  2  0      
 10  5  1  0      
  8 11  2  0      
 11 12  1  0      
 12 13  1  0      
 13 14  2  0      
 14  9  1  0      
 10 15  1  0      
  2 16  1  0      
 16 17  1  0      
 16 18  1  0      
 17 19  1  0      
 18 20  1  0      
 12 21  2  0      
 21 22  1  0      
 21 23  1  0      
 22 24  1  0      
 23 25  1  0      
 15 26  2  0      
 26 27  1  0      
 27 28  2  0      
 28 29  1  0      
 29 30  2  0      
 30 15  1  0      
 26 31  1  0      
 31 32  2  0      
 31 33  1  0      
 34 33  1  0      
 35 34  1  0      
 36 35  1  0      
 37 36  1  0      
 38 37  1  0      
M  CHG  2  21   1  39  -1
M  END
$$$$
