
  corina  02131209563D 1   1.00000     0.00000 
CORINA 3.49 0024  01.06.2011
 35 36  0  0  0  0  0  0  0  0  1 V2000
    1.4399    1.2962   -1.4417 C   0  0  0  0  0  0  0  0  0  0  0  0
    1.4644   -0.0768   -1.3378 C   0  0  0  0  0  0  0  0  0  0  0  0
    1.1495    2.0754   -0.3167 C   0  0  0  0  0  0  0  0  0  0  0  0
    1.2013   -0.6885   -0.1180 C   0  0  0  0  0  0  0  0  0  0  0  0
    0.8853    1.4548    0.9090 C   0  0  0  0  0  0  0  0  0  0  0  0
    0.9119    0.0811    1.0024 C   0  0  0  0  0  0  0  0  0  0  0  0
    1.1225    3.5425   -0.4221 C   0  0  0  0  0  0  0  0  0  0  0  0
   -0.2323    7.7327    1.0122 C   0  0  0  0  0  0  0  0  0  0  0  0
   -0.2133    6.3574    1.1144 C   0  0  0  0  0  0  0  0  0  0  0  0
    0.7759    8.3933    0.3315 C   0  0  0  0  0  0  0  0  0  0  0  0
    0.8266    5.6312    0.5295 C   0  0  0  0  0  0  0  0  0  0  0  0
    1.8097    7.6797   -0.2501 C   0  0  0  0  0  0  0  0  0  0  0  0
    1.8409    6.3041   -0.1555 C   0  0  0  0  0  0  0  0  0  0  0  0
    0.8517    4.2664    0.6275 N   0  0  0  0  0  0  0  0  0  0  0  0
    0.7378   10.4826    0.1820 I   0  0  0  0  0  0  0  0  0  0  0  0
    2.5148   -4.1441   -0.1730 C   0  0  0  0  0  0  0  0  0  0  0  0
    3.4269   -1.9721   -0.2197 O   0  0  0  0  0  0  0  0  0  0  0  0
    2.4234   -2.6403   -0.1395 C   0  0  0  0  0  0  0  0  0  0  0  0
    1.2267   -2.0428   -0.0206 O   0  0  0  0  0  0  0  0  0  0  0  0
    3.9796   -4.5630   -0.3133 C   0  0  0  0  0  0  0  0  0  0  0  0
    4.0724   -6.0898   -0.3473 C   0  0  0  0  0  0  0  0  0  0  0  0
    5.5373   -6.5088   -0.4876 C   0  0  0  0  0  0  0  0  0  0  0  0
    5.6301   -8.0356   -0.5216 C   0  0  0  0  0  0  0  0  0  0  0  0
    7.0949   -8.4545   -0.6619 C   0  0  0  0  0  0  0  0  0  0  0  0
    7.1877   -9.9813   -0.6959 C   0  0  0  0  0  0  0  0  0  0  0  0
    8.6525  -10.4002   -0.8362 C   0  0  0  0  0  0  0  0  0  0  0  0
    8.7453  -11.9270   -0.8702 C   0  0  0  0  0  0  0  0  0  0  0  0
   10.2101  -12.3459   -1.0105 C   0  0  0  0  0  0  0  0  0  0  0  0
   10.3029  -13.8727   -1.0444 C   0  0  0  0  0  0  0  0  0  0  0  0
   11.7678  -14.2916   -1.1848 C   0  0  0  0  0  0  0  0  0  0  0  0
   11.8606  -15.8184   -1.2187 C   0  0  0  0  0  0  0  0  0  0  0  0
   13.3254  -16.2374   -1.3591 C   0  0  0  0  0  0  0  0  0  0  0  0
   13.4182  -17.7642   -1.3930 C   0  0  0  0  0  0  0  0  0  0  0  0
   14.8830  -18.1831   -1.5334 C   0  0  0  0  0  0  0  0  0  0  0  0
   14.9758  -19.7099   -1.5673 C   0  0  0  0  0  0  0  0  0  0  0  0
  2  1  1  0  0  0  0
  3  1  2  0  0  0  0
  4  2  2  0  0  0  0
  5  3  1  0  0  0  0
  6  4  1  0  0  0  0
  6  5  2  0  0  0  0
  3  7  1  0  0  0  0
  9  8  1  0  0  0  0
 10  8  2  0  0  0  0
 11  9  2  0  0  0  0
 12 10  1  0  0  0  0
 13 11  1  0  0  0  0
 13 12  2  0  0  0  0
 11 14  1  0  0  0  0
 14  7  2  0  0  0  0
 10 15  1  0  0  0  0
 18 19  1  0  0  0  0
 17 18  2  0  0  0  0
 16 18  1  0  0  0  0
 20 16  1  0  0  0  0
 21 20  1  0  0  0  0
 22 21  1  0  0  0  0
 23 22  1  0  0  0  0
 24 23  1  0  0  0  0
 25 24  1  0  0  0  0
 26 25  1  0  0  0  0
 27 26  1  0  0  0  0
 28 27  1  0  0  0  0
 29 28  1  0  0  0  0
 30 29  1  0  0  0  0
 31 30  1  0  0  0  0
 32 31  1  0  0  0  0
 33 32  1  0  0  0  0
 34 33  1  0  0  0  0
 35 34  1  0  0  0  0
  4 19  1  0  0  0  0
M  END
$$$$
