
  corina  01291010173D 1   1.00000     0.00000 
CORINA 3.46 0026  05.08.2008
 31 33  0  0  0  0  0  0  0  0999 V2000
   -0.0171    1.4092    0.0098 C   0  0  0  0  0  0  0  0  0  0  0  0
   -1.1987    2.0553    0.0301 C   0  0  0  0  0  0  0  0  0  0  0  0
   -1.2246    3.4250    0.0272 N   0  0  0  0  0  0  0  0  0  0  0  0
   -0.0941    4.1288   -0.3497 C   0  0  0  0  0  0  0  0  0  0  0  0
    1.0761    3.5599   -0.3770 N   0  0  0  0  0  0  0  0  0  0  0  0
    1.2807    2.1653    0.0015 C   0  0  3  0  0  0  0  0  0  0  0  0
   -0.2168    5.5375   -0.7246 C   0  0  0  0  0  0  0  0  0  0  0  0
    1.9050    2.1124    1.3720 C   0  0  0  0  0  0  0  0  0  0  0  0
    2.8962    1.1874    1.6437 C   0  0  0  0  0  0  0  0  0  0  0  0
    3.0517    2.0158    3.8878 C   0  0  0  0  0  0  0  0  0  0  0  0
    2.0607    2.9464    3.6111 C   0  0  0  0  0  0  0  0  0  0  0  0
    3.4704    1.1372    2.8991 C   0  0  0  0  0  0  0  0  0  0  0  0
    1.4897    2.9926    2.3541 C   0  0  0  0  0  0  0  0  0  0  0  0
   -2.4873    1.2744    0.0555 C   0  0  0  0  0  0  0  0  0  0  0  0
    0.0021   -0.0041    0.0020 C   0  0  0  0  0  0  0  0  0  0  0  0
   -1.0434   -0.6268    0.0087 O   0  0  0  0  0  0  0  0  0  0  0  0
    1.1798   -0.6629   -0.0128 O   0  0  0  0  0  0  0  0  0  0  0  0
    1.1244   -2.0908   -0.0199 C   0  0  0  0  0  0  0  0  0  0  0  0
    2.5460   -2.6563   -0.0365 C   0  0  0  0  0  0  0  0  0  0  0  0
    3.6153    1.9686    5.1235 O   0  0  0  0  0  0  0  0  0  0  0  0
    4.6296    0.9849    5.3368 C   0  0  0  0  0  0  0  0  0  0  0  0
    0.8820    6.2380   -1.0956 C   0  0  0  0  0  0  0  0  0  0  0  0
    0.7582    7.6592   -1.4738 C   0  0  0  0  0  0  0  0  0  0  0  0
    2.0939    5.6341   -1.1192 O   0  0  0  0  0  0  0  0  0  0  0  0
    1.8919    8.3820   -1.8565 C   0  0  0  0  0  0  0  0  0  0  0  0
    1.7764    9.7071   -2.2091 C   0  0  0  0  0  0  0  0  0  0  0  0
    0.5256   10.3303   -2.1846 C   0  0  0  0  0  0  0  0  0  0  0  0
   -0.6079    9.6079   -1.8015 C   0  0  0  0  0  0  0  0  0  0  0  0
   -0.4935    8.2811   -1.4549 C   0  0  0  0  0  0  0  0  0  0  0  0
    0.4055   11.7093   -2.5516 C   0  0  0  0  0  0  0  0  0  0  0  0
    0.3102   12.8032   -2.8427 N   0  0  0  0  0  0  0  0  0  0  0  0
  1 15  1  0  0  0  0
  3  4  1  0  0  0  0
 15 16  2  0  0  0  0
  6  8  1  0  0  0  0
 15 17  1  0  0  0  0
  8  9  2  0  0  0  0
 17 18  1  0  0  0  0
 18 19  1  0  0  0  0
 10 11  1  0  0  0  0
 10 20  1  0  0  0  0
  4  5  2  0  0  0  0
 20 21  1  0  0  0  0
  2  3  1  0  0  0  0
  7 22  2  0  0  0  0
  5  6  1  0  0  0  0
 22 23  1  0  0  0  0
  6  1  1  0  0  0  0
 22 24  1  0  0  0  0
  8 13  1  0  0  0  0
 23 25  2  0  0  0  0
  9 12  1  0  0  0  0
 25 26  1  0  0  0  0
 12 10  2  0  0  0  0
 26 27  2  0  0  0  0
 11 13  2  0  0  0  0
 27 28  1  0  0  0  0
  1  2  2  0  0  0  0
 28 29  2  0  0  0  0
 29 23  1  0  0  0  0
  2 14  1  0  0  0  0
 27 30  1  0  0  0  0
  4  7  1  0  0  0  0
 30 31  3  0  0  0  0
M  END
$$$$
