167847-61-2
  DSViewer          3D                             0

 18 19  0  0  0  0  0  0  0  0999 V2000
    9.2645    6.6493    0.0000 S   0  0  0  0  0  0  0  0  0  1
    8.5503    6.2380    0.0000 N   0  0  0  0  0  0  0  0  0  2
    9.6758    7.3635    0.0000 O   0  0  0  0  0  0  0  0  0  3
    8.8511    7.3635    0.0000 O   0  0  0  0  0  0  0  0  0  4
    9.9787    6.2380    0.0000 C   0  0  0  0  0  0  0  0  0  5
    7.8341    6.6493    0.0000 C   0  0  0  0  0  0  0  0  0  6
    9.9787    5.4134    0.0000 C   0  0  0  0  0  0  0  0  0  7
   10.6928    6.6493    0.0000 C   0  0  0  0  0  0  0  0  0  8
    7.1200    6.2380    0.0000 C   0  0  0  0  0  0  0  0  0  9
   10.6928    5.0000    0.0000 C   0  0  0  0  0  0  0  0  0 10
   11.4070    6.2380    0.0000 C   0  0  0  0  0  0  0  0  0 11
    6.8540    5.4666    0.0000 C   0  0  0  0  0  0  0  0  0 12
    6.4672    6.7435    0.0000 O   0  0  0  0  0  0  0  0  0 13
   11.4070    5.4134    0.0000 C   0  0  0  0  0  0  0  0  0 14
    6.0232    5.4666    0.0000 C   0  0  0  0  0  0  0  0  0 15
    5.7858    6.2380    0.0000 C   0  0  0  0  0  0  0  0  0 16
   12.1211    5.0000    0.0000 C   0  0  0  0  0  0  0  0  0 17
    5.0000    6.4938    0.0000 C   0  0  0  0  0  0  0  0  0 18
  1  2  1  0  0  0
  1  3  2  0  0  0
  1  4  2  0  0  0
  1  5  1  0  0  0
  2  6  1  0  0  0
  5  7  2  0  0  0
  5  8  1  0  0  0
  6  9  1  0  0  0
  7 10  1  0  0  0
  8 11  2  0  0  0
  9 12  2  0  0  0
  9 13  1  0  0  0
 10 14  2  0  0  0
 11 14  1  0  0  0
 12 15  1  0  0  0
 13 16  1  0  0  0
 14 17  1  0  0  0
 15 16  2  0  0  0
 16 18  1  0  0  0
M  END
