167847-61-2
  corina  12080917083D 1   1.00000     0.00000     0
CORINA 3.46 0026  05.08.2008
 18 19  0  0  0  0  0  0  0  0999 V2000
   -0.0204    1.6518    0.0111 S   0  0  0  0  0  0  0  0  0  1
    0.0021   -0.0041    0.0020 N   0  0  0  0  0  0  0  0  0  2
    1.3372    2.0715    0.0004 O   0  0  0  0  0  0  0  0  0  3
   -0.9635    2.0457   -0.9761 O   0  0  0  0  0  0  0  0  0  4
   -0.6848    2.1558    1.5632 C   0  0  0  0  0  0  0  0  0  5
   -1.2558   -0.7539    0.0423 C   0  0  0  0  0  0  0  0  0  6
    0.1565    2.3659    2.6398 C   0  0  0  0  0  0  0  0  0  7
   -2.0468    2.3467    1.7029 C   0  0  0  0  0  0  0  0  0  8
   -0.9982   -2.1882   -0.3419 C   0  0  0  0  0  0  0  0  0  9
   -0.3648    2.7614    3.8575 C   0  0  0  0  0  0  0  0  0 10
   -2.5681    2.7421    2.9205 C   0  0  0  0  0  0  0  0  0 11
   -0.6824   -3.1847    0.5046 C   0  0  0  0  0  0  0  0  0 12
   -1.0506   -2.6894   -1.5868 O   0  0  0  0  0  0  0  0  0 13
   -1.7273    2.9471    3.9985 C   0  0  0  0  0  0  0  0  0 14
   -0.5300   -4.3531   -0.2769 C   0  0  0  0  0  0  0  0  0 15
   -0.7656   -4.0014   -1.5537 C   0  0  0  0  0  0  0  0  0 16
   -2.2956    3.3777    5.3262 C   0  0  0  0  0  0  0  0  0 17
   -0.7210   -4.9239   -2.7445 C   0  0  0  0  0  0  0  0  0 18
  1  2  1  0  0  0
  1  3  2  0  0  0
  1  4  2  0  0  0
  1  5  1  0  0  0
  2  6  1  0  0  0
  5  7  2  0  0  0
  5  8  1  0  0  0
  6  9  1  0  0  0
  7 10  1  0  0  0
  8 11  2  0  0  0
  9 12  2  0  0  0
  9 13  1  0  0  0
 10 14  2  0  0  0
 11 14  1  0  0  0
 12 15  1  0  0  0
 13 16  1  0  0  0
 14 17  1  0  0  0
 15 16  2  0  0  0
 16 18  1  0  0  0
M  END
$$$$
