
  corina  06181403393D 1   1.00000     0.00000 
CORINA 3.49 0023  12.04.2013
 59 59  0  0  0  0  0  0  0  0999 V2000
   -0.6647    0.9726    1.5856 O   0  0  0  0  0  0  0  0  0  0  0  0
   -0.5176   -0.3182    1.2479 C   0  0  0  0  0  0  0  0  0  0  0  0
   -1.7268   -1.1500    0.9058 C   0  0  1  0  0  0  0  0  0  0  0  0
   -1.3040   -2.5131    0.5747 N   0  0  0  0  0  0  0  0  0  0  0  0
   -2.0726   -3.2822   -0.2217 C   0  0  0  0  0  0  0  0  0  0  0  0
   -1.6377   -4.6843   -0.5624 C   0  0  1  0  0  0  0  0  0  0  0  0
   -2.6391   -5.3087   -1.4372 N   0  0  0  0  0  0  0  0  0  0  0  0
    0.5436    1.7128    1.9026 C   0  0  0  0  0  0  0  0  0  0  0  0
    0.5842   -0.8131    1.2181 O   0  0  0  0  0  0  0  0  0  0  0  0
   -2.6758   -1.1877    2.1054 C   0  0  0  0  0  0  0  0  0  0  0  0
   -3.1141   -2.8460   -0.6641 O   0  0  0  0  0  0  0  0  0  0  0  0
   -2.6046   -6.7722   -1.3161 C   0  0  0  0  0  0  0  0  0  0  0  0
   -0.2885   -4.6390   -1.2825 C   0  0  0  0  0  0  0  0  0  0  0  0
   -0.4319   -3.8689   -2.5699 C   0  0  0  0  0  0  0  0  0  0  0  0
   -0.1339   -2.5195   -2.6049 C   0  0  0  0  0  0  0  0  0  0  0  0
   -0.2655   -1.8130   -3.7858 C   0  0  0  0  0  0  0  0  0  0  0  0
   -0.6946   -2.4560   -4.9318 C   0  0  0  0  0  0  0  0  0  0  0  0
   -0.9918   -3.8056   -4.8970 C   0  0  0  0  0  0  0  0  0  0  0  0
   -0.8560   -4.5130   -3.7171 C   0  0  0  0  0  0  0  0  0  0  0  0
   -3.6027   -7.3787   -2.2686 C   0  0  0  0  0  0  0  0  0  0  0  0
   -3.2187   -7.7074   -3.5552 C   0  0  0  0  0  0  0  0  0  0  0  0
   -4.1342   -8.2637   -4.4289 C   0  0  0  0  0  0  0  0  0  0  0  0
   -5.4336   -8.4917   -4.0158 C   0  0  0  0  0  0  0  0  0  0  0  0
   -5.8173   -8.1638   -2.7289 C   0  0  0  0  0  0  0  0  0  0  0  0
   -4.9006   -7.6116   -1.8538 C   0  0  0  0  0  0  0  0  0  0  0  0
   -3.1173    0.2358    2.4512 C   0  0  0  0  0  0  0  0  0  0  0  0
   -3.9034   -2.0322    1.7581 C   0  0  0  0  0  0  0  0  0  0  0  0
   -6.4643   -9.1168   -4.9996 B   0  5  0  0  0  0  0  0  0  0  0  0
   -6.4322  -10.4819   -4.8880 F   0  0  0  0  0  0  0  0  0  0  0  0
   -7.7204   -8.6631   -4.6941 F   0  0  0  0  0  0  0  0  0  0  0  0
   -6.1479   -8.7560   -6.2828 F   0  0  0  0  0  0  0  0  0  0  0  0
    6.2085    7.7402    8.3058 K   0  3  0  0  0  0  0  0  0  0  0  0
   -2.2398   -0.7108    0.0503 H   0  0  0  0  0  0  0  0  0  0  0  0
   -0.4710   -2.8619    0.9285 H   0  0  0  0  0  0  0  0  0  0  0  0
   -1.5413   -5.2675    0.3535 H   0  0  0  0  0  0  0  0  0  0  0  0
   -3.5624   -4.9513   -1.2426 H   0  0  0  0  0  0  0  0  0  0  0  0
    1.0454    1.2439    2.7490 H   0  0  0  0  0  0  0  0  0  0  0  0
    1.2085    1.7100    1.0389 H   0  0  0  0  0  0  0  0  0  0  0  0
    0.2838    2.7402    2.1578 H   0  0  0  0  0  0  0  0  0  0  0  0
   -2.1628   -1.6269    2.9609 H   0  0  0  0  0  0  0  0  0  0  0  0
   -1.6052   -7.1335   -1.5585 H   0  0  0  0  0  0  0  0  0  0  0  0
   -2.8567   -7.0584   -0.2950 H   0  0  0  0  0  0  0  0  0  0  0  0
    0.4471   -4.1481   -0.6455 H   0  0  0  0  0  0  0  0  0  0  0  0
    0.0407   -5.6548   -1.5016 H   0  0  0  0  0  0  0  0  0  0  0  0
    0.2014   -2.0171   -1.7096 H   0  0  0  0  0  0  0  0  0  0  0  0
   -0.0334   -0.7586   -3.8130 H   0  0  0  0  0  0  0  0  0  0  0  0
   -0.7981   -1.9039   -5.8542 H   0  0  0  0  0  0  0  0  0  0  0  0
   -1.3274   -4.3079   -5.7922 H   0  0  0  0  0  0  0  0  0  0  0  0
   -1.0847   -5.5682   -3.6908 H   0  0  0  0  0  0  0  0  0  0  0  0
   -2.2036   -7.5293   -3.8780 H   0  0  0  0  0  0  0  0  0  0  0  0
   -3.8344   -8.5198   -5.4343 H   0  0  0  0  0  0  0  0  0  0  0  0
   -6.8325   -8.3416   -2.4062 H   0  0  0  0  0  0  0  0  0  0  0  0
   -5.1994   -7.3588   -0.8472 H   0  0  0  0  0  0  0  0  0  0  0  0
   -3.6303    0.6751    1.5957 H   0  0  0  0  0  0  0  0  0  0  0  0
   -3.7934    0.2090    3.3058 H   0  0  0  0  0  0  0  0  0  0  0  0
   -2.2427    0.8375    2.6986 H   0  0  0  0  0  0  0  0  0  0  0  0
   -3.5889   -3.0463    1.5117 H   0  0  0  0  0  0  0  0  0  0  0  0
   -4.5795   -2.0590    2.6127 H   0  0  0  0  0  0  0  0  0  0  0  0
   -4.4164   -1.5930    0.9026 H   0  0  0  0  0  0  0  0  0  0  0  0
  1  2  1  0      
  1  8  1  0      
  2  3  1  0      
  2  9  2  0      
  3  4  1  0      
  3 10  1  0      
  3 33  1  0      
  4  5  1  0      
  4 34  1  0      
  5  6  1  0      
  5 11  2  0      
  6  7  1  0      
  6 13  1  0      
  6 35  1  0      
 12  7  1  0      
  7 36  1  0      
  8 37  1  0      
  8 38  1  0      
  8 39  1  0      
 10 26  1  0      
 10 27  1  0      
 10 40  1  0      
 12 20  1  0      
 12 41  1  0      
 12 42  1  0      
 13 14  1  0      
 13 43  1  0      
 13 44  1  0      
 14 15  1  0      
 14 19  2  0      
 15 16  2  0      
 15 45  1  0      
 16 17  1  0      
 16 46  1  0      
 17 18  2  0      
 17 47  1  0      
 18 19  1  0      
 18 48  1  0      
 19 49  1  0      
 20 21  1  0      
 20 25  2  0      
 21 22  2  0      
 21 50  1  0      
 22 23  1  0      
 22 51  1  0      
 23 24  2  0      
 23 28  1  0      
 24 25  1  0      
 24 52  1  0      
 25 53  1  0      
 26 54  1  0      
 26 55  1  0      
 26 56  1  0      
 27 57  1  0      
 27 58  1  0      
 27 59  1  0      
 28 29  1  0      
 28 30  1  0      
 28 31  1  0      
M  CHG  2  28  -1  32   1
M  END
$$$$
