m503.mol
  corina  12080917093D 1   1.00000     0.00000 
CORINA 3.46 0026  05.08.2008
 19 19  0  0  0  0  0  0  0  0999 V2000
   -0.0167    1.3779    0.0096 C   0  0  0  0  0  0  0  0  0  0  0  0
    0.0021   -0.0041    0.0020 C   0  0  0  0  0  0  0  0  0  0  0  0
    1.2086   -0.6790   -0.0132 C   0  0  0  0  0  0  0  0  0  0  0  0
    2.3961    0.0283   -0.0212 C   0  0  0  0  0  0  0  0  0  0  0  0
    2.3773    1.4107   -0.0145 C   0  0  0  0  0  0  0  0  0  0  0  0
    1.1711    2.0854    0.0021 C   0  0  0  0  0  0  0  0  0  0  0  0
    3.6720    2.1819   -0.0223 C   0  0  0  0  0  0  0  0  0  0  0  0
    4.1764    2.4994   -1.7356 S   0  0  0  0  0  0  0  0  0  0  0  0
    5.7235    3.4185   -1.5065 C   0  0  0  0  0  0  0  0  0  0  0  0
    6.2998    3.7752   -2.8525 C   0  0  0  0  0  0  0  0  0  0  0  0
    4.4757    1.2570   -2.3571 O   0  0  0  0  0  0  0  0  0  0  0  0
    3.2212    3.3633   -2.3361 O   0  0  0  0  0  0  0  0  0  0  0  0
    1.2276   -2.0768   -0.0199 N   0  3  0  0  0  0  0  0  0  0  0  0
    5.9516    4.9673   -3.4596 C   0  0  0  0  0  0  0  0  0  0  0  0
    6.4803    5.2945   -4.6942 C   0  0  0  0  0  0  0  0  0  0  0  0
    7.3575    4.4298   -5.3216 C   0  0  0  0  0  0  0  0  0  0  0  0
    7.7064    3.2381   -4.7141 C   0  0  0  0  0  0  0  0  0  0  0  0
    7.1811    2.9129   -3.4775 C   0  0  0  0  0  0  0  0  0  0  0  0
   12.7064   10.2945    5.0096 Cl  0  5  0  0  0  0  0  0  0  0  0  0
  1  2  2  0  0  0
  2  3  1  0  0  0
  3  4  2  0  0  0
  4  5  1  0  0  0
  5  6  2  0  0  0
  6  1  1  0  0  0
  5  7  1  0  0  0
  7  8  1  0  0  0
  8  9  1  0  0  0
  9 10  1  0  0  0
  8 11  2  0  0  0
  8 12  2  0  0  0
  3 13  1  0  0  0
 10 14  2  0  0  0
 14 15  1  0  0  0
 15 16  2  0  0  0
 16 17  1  0  0  0
 17 18  2  0  0  0
 18 10  1  0  0  0
M  END
$$$$
