
  corina  12080917093D 1   1.00000     0.00000 
CORINA 3.46 0026  05.08.2008
 34 36  0  0  0  0  0  0  0  0  1 V2000
   -0.0173    1.4248    0.0099 C   0  0  0  0  0  0  0  0  0  0  0  0
    0.0021   -0.0041    0.0020 O   0  0  0  0  0  0  0  0  0  0  0  0
    0.2070   -4.1719    0.2305 C   0  0  0  0  0  0  0  0  0  0  0  0
    0.1122   -2.7511    0.1113 O   0  0  0  0  0  0  0  0  0  0  0  0
    3.5931    0.6765    6.1066 C   0  0  0  0  0  0  0  0  0  0  0  0
    3.3700    2.0158    5.7655 C   0  0  0  0  0  0  0  0  0  0  0  0
    4.3045    0.3974    7.2942 C   0  0  0  0  0  0  0  0  0  0  0  0
    3.8429    3.0383    6.5853 C   0  0  0  0  0  0  0  0  0  0  0  0
    4.7588    1.4100    8.0826 C   0  0  0  0  0  0  0  0  0  0  0  0
    4.5335    2.7347    7.7374 C   0  0  0  0  0  0  0  0  0  0  0  0
    3.0789   -0.1839    5.2109 N   0  0  0  0  0  0  0  0  0  0  0  0
    2.4684    2.0619    4.2526 S   0  0  0  0  0  0  0  0  0  0  0  0
    2.4662    0.3050    4.1855 C   0  0  0  0  0  0  0  0  0  0  0  0
    1.3191   -2.6398    2.1569 C   0  0  0  0  0  0  0  0  0  0  0  0
    0.6822   -2.0098    1.0974 C   0  0  0  0  0  0  0  0  0  0  0  0
    1.8986   -1.8919    3.1601 C   0  0  0  0  0  0  0  0  0  0  0  0
    0.6263   -0.6188    1.0422 C   0  0  0  0  0  0  0  0  0  0  0  0
    1.8460   -0.4978    3.1108 C   0  0  0  0  0  0  0  0  0  0  0  0
    1.2056    0.1364    2.0446 C   0  0  0  0  0  0  0  0  0  0  0  0
   -0.4870   -4.8313   -0.9631 C   0  0  0  0  0  0  0  0  0  0  0  0
   -0.3855   -6.3526   -0.8355 C   0  0  0  0  0  0  0  0  0  0  0  0
   -1.0794   -7.0119   -2.0290 C   0  0  0  0  0  0  0  0  0  0  0  0
   -0.9779   -8.5332   -1.9014 C   0  0  0  0  0  0  0  0  0  0  0  0
   -1.6719   -9.1925   -3.0950 C   0  0  0  0  0  0  0  0  0  0  0  0
   -1.5704  -10.7138   -2.9674 C   0  0  0  0  0  0  0  0  0  0  0  0
   -2.2644  -11.3732   -4.1609 C   0  0  0  0  0  0  0  0  0  0  0  0
   -2.1628  -12.8945   -4.0333 C   0  0  0  0  0  0  0  0  0  0  0  0
   -2.8568  -13.5538   -5.2269 C   0  0  0  0  0  0  0  0  0  0  0  0
   -2.7553  -15.0751   -5.0992 C   0  0  0  0  0  0  0  0  0  0  0  0
   -3.4493  -15.7344   -6.2928 C   0  0  0  0  0  0  0  0  0  0  0  0
   -3.3478  -17.2557   -6.1652 C   0  0  0  0  0  0  0  0  0  0  0  0
   -4.0417  -17.9151   -7.3587 C   0  0  0  0  0  0  0  0  0  0  0  0
   -3.9402  -19.4364   -7.2311 C   0  0  0  0  0  0  0  0  0  0  0  0
   -4.6342  -20.0957   -8.4247 C   0  0  0  0  0  0  0  0  0  0  0  0
  6  5  1  0  0  0  0
  7  5  2  0  0  0  0
  8  6  2  0  0  0  0
  9  7  1  0  0  0  0
 10  8  1  0  0  0  0
 10  9  2  0  0  0  0
  5 11  1  0  0  0  0
  6 12  1  0  0  0  0
 11 13  2  0  0  0  0
 13 12  1  0  0  0  0
 15 14  1  0  0  0  0
 16 14  2  0  0  0  0
 17 15  2  0  0  0  0
 18 16  1  0  0  0  0
 19 17  1  0  0  0  0
 19 18  2  0  0  0  0
 13 18  1  0  0  0  0
  4 15  1  0  0  0  0
  3  4  1  0  0  0  0
 20  3  1  0  0  0  0
 21 20  1  0  0  0  0
 22 21  1  0  0  0  0
 23 22  1  0  0  0  0
 24 23  1  0  0  0  0
 25 24  1  0  0  0  0
 26 25  1  0  0  0  0
 27 26  1  0  0  0  0
 28 27  1  0  0  0  0
 29 28  1  0  0  0  0
 30 29  1  0  0  0  0
 31 30  1  0  0  0  0
 32 31  1  0  0  0  0
 33 32  1  0  0  0  0
 34 33  1  0  0  0  0
  2 17  1  0  0  0  0
  1  2  1  0  0  0  0
M  END
$$$$
