m484.mol
  corina  12080917093D 1   1.00000     0.00000 
CORINA 3.46 0026  05.08.2008
 34 37  0  0  0  0  0  0  0  0999 V2000
   -0.0837    1.4236   -0.3693 C   0  0  0  0  0  0  0  0  0  0  0  0
    0.0021   -0.0041    0.0020 C   0  0  0  0  0  0  0  0  0  0  0  0
    1.2857   -0.7249   -0.1256 C   0  0  0  0  0  0  0  0  0  0  0  0
   -0.9832   -0.5855    0.4125 O   0  0  0  0  0  0  0  0  0  0  0  0
   -1.2582    1.9320   -0.9314 C   0  0  0  0  0  0  0  0  0  0  0  0
   -1.3399    3.2654   -1.2794 C   0  0  0  0  0  0  0  0  0  0  0  0
   -0.2638    4.1063   -1.0754 C   0  0  0  0  0  0  0  0  0  0  0  0
    0.9171    3.6120   -0.5143 C   0  0  0  0  0  0  0  0  0  0  0  0
    1.0047    2.2681   -0.1547 C   0  0  0  0  0  0  0  0  0  0  0  0
    1.4107   -2.0224    0.3691 C   0  0  0  0  0  0  0  0  0  0  0  0
    2.6252   -2.6948    0.2438 C   0  0  0  0  0  0  0  0  0  0  0  0
    3.7083   -2.0650   -0.3761 C   0  0  0  0  0  0  0  0  0  0  0  0
    3.5773   -0.7797   -0.8632 C   0  0  0  0  0  0  0  0  0  0  0  0
    2.3757   -0.1097   -0.7478 C   0  0  0  0  0  0  0  0  0  0  0  0
    1.9833    4.4468   -0.3136 N   0  0  0  0  0  0  0  0  0  0  0  0
    2.7571   -3.9688    0.7270 N   0  0  0  0  0  0  0  0  0  0  0  0
    2.3453    5.2784   -1.2500 C   0  0  0  0  0  0  0  0  0  0  0  0
    1.5901    5.3207   -2.5534 C   0  0  0  0  0  0  0  0  0  0  0  0
    3.3449   -4.8819    0.0057 C   0  0  0  0  0  0  0  0  0  0  0  0
    3.8792   -4.5350   -1.3600 C   0  0  0  0  0  0  0  0  0  0  0  0
    3.4866   -6.2503    0.5248 C   0  0  0  0  0  0  0  0  0  0  0  0
    3.4905    6.1751   -1.0344 C   0  0  0  0  0  0  0  0  0  0  0  0
    4.1969    6.1394    0.1777 C   0  0  0  0  0  0  0  0  0  0  0  0
    5.2748    6.9890    0.3692 C   0  0  0  0  0  0  0  0  0  0  0  0
    5.6512    7.8669   -0.6289 C   0  0  0  0  0  0  0  0  0  0  0  0
    4.9572    7.9059   -1.8271 C   0  0  0  0  0  0  0  0  0  0  0  0
    3.8862    7.0648   -2.0382 C   0  0  0  0  0  0  0  0  0  0  0  0
    4.1164   -7.2332   -0.2453 C   0  0  0  0  0  0  0  0  0  0  0  0
    4.2455   -8.5136    0.2477 C   0  0  0  0  0  0  0  0  0  0  0  0
    3.7539   -8.8324    1.5028 C   0  0  0  0  0  0  0  0  0  0  0  0
    3.1295   -7.8713    2.2744 C   0  0  0  0  0  0  0  0  0  0  0  0
    2.9958   -6.5767    1.7984 C   0  0  0  0  0  0  0  0  0  0  0  0
    3.8258    5.2772    1.1579 O   0  0  0  0  0  0  0  0  0  0  0  0
    2.3826   -5.6319    2.5554 O   0  0  0  0  0  0  0  0  0  0  0  0
  1  2  1  0  0  0
  2  3  1  0  0  0
  2  4  2  0  0  0
  1  5  2  0  0  0
  5  6  1  0  0  0
  6  7  2  0  0  0
  7  8  1  0  0  0
  8  9  2  0  0  0
  9  1  1  0  0  0
  3 10  2  0  0  0
 10 11  1  0  0  0
 11 12  2  0  0  0
 12 13  1  0  0  0
 13 14  2  0  0  0
 14  3  1  0  0  0
  8 15  1  0  0  0
 11 16  1  0  0  0
 15 17  2  0  0  0
 17 18  1  0  0  0
 16 19  2  0  0  0
 19 20  1  0  0  0
 19 21  1  0  0  0
 17 22  1  0  0  0
 22 23  2  0  0  0
 23 24  1  0  0  0
 24 25  2  0  0  0
 25 26  1  0  0  0
 26 27  2  0  0  0
 27 22  1  0  0  0
 21 28  2  0  0  0
 28 29  1  0  0  0
 29 30  2  0  0  0
 30 31  1  0  0  0
 31 32  2  0  0  0
 32 21  1  0  0  0
 23 33  1  0  0  0
 32 34  1  0  0  0
M  END
$$$$
