
  corina  12080917083D 1   1.00000     0.00000 
CORINA 3.46 0026  05.08.2008
 28 30  0  0  0  0  0  0  0  0999 V2000
   -0.0152    1.2715    0.0090 N   0  0  0  0  0  0  0  0  0  0  0  0
    1.2565    1.8362   -0.0001 N   0  0  3  0  0  0  0  0  0  0  0  0
    2.2118    0.8831   -0.0143 C   0  0  0  0  0  0  0  0  0  0  0  0
    1.4549   -0.4313   -0.0141 C   0  0  3  0  0  0  0  0  0  0  0  0
    0.0021   -0.0041    0.0020 C   0  0  0  0  0  0  0  0  0  0  0  0
    3.4142    1.0428   -0.0255 O   0  0  0  0  0  0  0  0  0  0  0  0
    1.7533   -1.1983   -1.2261 N   0  0  0  0  0  0  0  0  0  0  0  0
   -1.1983   -0.9151    0.0093 C   0  0  3  0  0  0  0  0  0  0  0  0
   -2.3671   -0.1464    0.0244 F   0  0  0  0  0  0  0  0  0  0  0  0
   -1.1822   -1.7169   -1.1370 F   0  0  0  0  0  0  0  0  0  0  0  0
   -1.1600   -1.7278    1.1474 F   0  0  0  0  0  0  0  0  0  0  0  0
    2.8953   -1.6444   -1.4120 N   0  0  0  0  0  0  0  0  0  0  0  0
    3.1745   -2.3619   -2.5457 C   0  0  0  0  0  0  0  0  0  0  0  0
    4.4592   -2.8655   -2.7582 C   0  0  0  0  0  0  0  0  0  0  0  0
    4.7319   -3.5918   -3.8989 C   0  0  0  0  0  0  0  0  0  0  0  0
    3.7358   -3.8211   -4.8315 C   0  0  0  0  0  0  0  0  0  0  0  0
    2.4605   -3.3249   -4.6271 C   0  0  0  0  0  0  0  0  0  0  0  0
    2.1739   -2.5974   -3.4907 C   0  0  0  0  0  0  0  0  0  0  0  0
   -0.7545    3.4228    0.9080 O   0  0  0  0  0  0  0  0  0  0  0  0
   -0.7918    5.9775    0.3965 O   0  0  0  0  0  0  0  0  0  0  0  0
    1.2273    3.8533   -1.2850 O   0  0  0  0  0  0  0  0  0  0  0  0
    2.7170    5.9279   -2.6597 O   0  0  0  0  0  0  0  0  0  0  0  0
    1.5234    3.2767    0.0051 C   0  0  3  0  0  0  0  0  0  0  0  0
    0.5476    4.0091    0.9610 C   0  0  1  0  0  0  0  0  0  0  0  0
    0.5327    5.4416    0.3741 C   0  0  1  0  0  0  0  0  0  0  0  0
    1.0165    5.2600   -1.0777 C   0  0  1  0  0  0  0  0  0  0  0  0
    2.3283    6.0191   -1.2876 C   0  0  0  0  0  0  0  0  0  0  0  0
    4.0415   -4.6146   -6.0757 C   0  0  0  0  0  0  0  0  0  0  0  0
 13 14  2  0  0  0  0
  4  7  1  0  0  0  0
 14 15  1  0  0  0  0
  2  3  1  0  0  0  0
 15 16  2  0  0  0  0
  3  4  1  0  0  0  0
 16 17  1  0  0  0  0
  4  5  1  0  0  0  0
 17 18  2  0  0  0  0
 18 13  1  0  0  0  0
  5  1  2  0  0  0  0
  8  9  1  0  0  0  0
  8 10  1  0  0  0  0
  8 11  1  0  0  0  0
  5  8  1  0  0  0  0
  1  2  1  0  0  0  0
  7 12  2  0  0  0  0
  3  6  2  0  0  0  0
 12 13  1  0  0  0  0
 26 21  1  0  0  0  0
 26 25  1  0  0  0  0
 21 23  1  0  0  0  0
 25 24  1  0  0  0  0
 23 24  1  0  0  0  0
 26 27  1  0  0  0  0
 27 22  1  0  0  0  0
 24 19  1  0  0  0  0
 25 20  1  0  0  0  0
  2 23  1  0  0  0  0
 16 28  1  0  0  0  0
M  END
$$$$
