
  corina  12080917083D 1   1.00000     0.00000 
CORINA 3.46 0026  05.08.2008
 16 16  0  0  0  0  0  0  0  0999 V2000
   -0.0168    1.3844    0.0097 C   0  0  0  0  0  0  0  0  0  0  0  0
    1.2105    1.9450    0.0009 C   0  0  0  0  0  0  0  0  0  0  0  0
    2.4456    0.6963   -0.0176 S   0  0  0  0  0  0  0  0  0  0  0  0
    1.2740   -0.5438   -0.0130 C   0  0  0  0  0  0  0  0  0  0  0  0
    0.0021   -0.0041    0.0020 C   0  0  0  0  0  0  0  0  0  0  0  0
    1.5555   -1.8894   -0.0234 N   0  0  0  0  0  0  0  0  0  0  0  0
   -1.2899    2.1903    0.0320 C   0  0  0  0  0  0  0  0  0  0  0  0
    1.4739    3.3824    0.0054 C   0  0  0  0  0  0  0  0  0  0  0  0
    0.5471    4.1707    0.0181 O   0  0  0  0  0  0  0  0  0  0  0  0
    2.7449    3.8355   -0.0046 O   0  0  0  0  0  0  0  0  0  0  0  0
    2.9285    5.2526    0.0006 C   0  0  0  0  0  0  0  0  0  0  0  0
    4.4245    5.5731   -0.0122 C   0  0  0  0  0  0  0  0  0  0  0  0
   -1.2148   -0.8216    0.0092 C   0  0  0  0  0  0  0  0  0  0  0  0
   -1.7092   -1.1667    1.0654 O   0  0  0  0  0  0  0  0  0  0  0  0
   -1.7859   -1.1909   -1.1552 O   0  0  0  0  0  0  0  0  0  0  0  0
   -2.9888   -2.0000   -1.0721 C   0  0  0  0  0  0  0  0  0  0  0  0
  2  3  1  0  0  0  0
  2  8  1  0  0  0  0
  3  4  1  0  0  0  0
  8  9  2  0  0  0  0
  4  5  2  0  0  0  0
  8 10  1  0  0  0  0
  5  1  1  0  0  0  0
 10 11  1  0  0  0  0
  5 13  1  0  0  0  0
 11 12  1  0  0  0  0
  1  2  2  0  0  0  0
  4  6  1  0  0  0  0
  1  7  1  0  0  0  0
 13 14  2  0  0  0  0
 13 15  1  0  0  0  0
 15 16  1  0  0  0  0
G   13  5
COOCH3
M  STY  1   1 SUP
M  SLB  1   1   1
M  SAL   1  4  13  14  15  16
M  SBL   1  1   9
M  SMT   1 COOCH3
M  SBV   1   9   -0.4700   -0.6900
M  END
$$$$
