
  corina  12080917093D 1   1.00000     0.00000 
CORINA 3.46 0026  05.08.2008
 81 93  0  0  0  0  0  0  0  0  3 V2000
   -0.7888    2.4742    1.9640 C   0  0  0  0  0  0  0  0  0  0  0  0
   -1.2582    1.2441    2.4179 C   0  0  0  0  0  0  0  0  0  0  0  0
    0.3809    2.5383    1.2110 C   0  0  0  0  0  0  0  0  0  0  0  0
   -0.5579    0.0781    2.1188 C   0  0  0  0  0  0  0  0  0  0  0  0
    1.0813    1.3723    0.9119 C   0  0  0  0  0  0  0  0  0  0  0  0
    0.6119    0.1422    1.3658 C   0  0  0  0  0  0  0  0  0  0  0  0
    0.8806    3.8481    0.7272 C   0  0  0  0  0  0  0  0  0  0  0  0
   -2.5035    1.1759    3.2203 C   0  0  0  0  0  0  0  0  0  0  0  0
    1.3579   -1.0994    1.0477 C   0  0  0  0  0  0  0  0  0  0  0  0
    2.5740    5.1410   -0.3790 C   0  0  0  0  0  0  0  0  0  0  0  0
    2.1089    3.9260    0.0706 C   0  0  0  0  0  0  0  0  0  0  0  0
    1.8147    6.2972   -0.1774 C   0  0  0  0  0  0  0  0  0  0  0  0
    0.5813    6.2166    0.4752 C   0  0  0  0  0  0  0  0  0  0  0  0
    0.1191    5.0002    0.9241 C   0  0  0  0  0  0  0  0  0  0  0  0
   -4.1286   -0.1214    4.4198 C   0  0  0  0  0  0  0  0  0  0  0  0
   -4.8316    1.0486    4.7212 C   0  0  0  0  0  0  0  0  0  0  0  0
   -2.9731   -0.0566    3.6746 C   0  0  0  0  0  0  0  0  0  0  0  0
   -4.3570    2.2833    4.2698 C   0  0  0  0  0  0  0  0  0  0  0  0
   -3.2011    2.3450    3.5248 C   0  0  0  0  0  0  0  0  0  0  0  0
    2.5295   -1.0344    0.2933 C   0  0  0  0  0  0  0  0  0  0  0  0
    3.2228   -2.1860   -0.0032 C   0  0  0  0  0  0  0  0  0  0  0  0
    2.7526   -3.4209    0.4525 C   0  0  0  0  0  0  0  0  0  0  0  0
    0.8904   -2.3305    1.5080 C   0  0  0  0  0  0  0  0  0  0  0  0
    1.5787   -3.4844    1.2087 C   0  0  0  0  0  0  0  0  0  0  0  0
    2.2754    7.5050   -0.6234 N   0  0  0  0  0  0  0  0  0  0  0  0
    1.5513    8.2174   -1.4428 C   0  0  0  0  0  0  0  0  0  0  0  0
    0.3339    7.6462   -2.0331 C   0  0  0  0  0  0  0  0  0  0  0  0
   -0.7616    8.3827   -2.6738 C   0  0  0  0  0  0  0  0  0  0  0  0
   -1.6477    7.4934   -3.0629 N   0  0  0  0  0  0  0  0  0  0  0  0
   -1.1984    6.2164   -2.7153 N   0  0  0  0  0  0  0  0  0  0  0  0
   -0.0043    6.3087   -2.1007 C   0  0  0  0  0  0  0  0  0  0  0  0
   -5.9796    0.9857    5.4615 N   0  0  0  0  0  0  0  0  0  0  0  0
   -6.1764    1.8339    6.4337 C   0  0  0  0  0  0  0  0  0  0  0  0
    3.4400   -4.5659    0.1584 N   0  0  0  0  0  0  0  0  0  0  0  0
    3.6526   -5.4565    1.0885 C   0  0  0  0  0  0  0  0  0  0  0  0
    4.3908   -6.6861    0.7726 C   0  0  0  0  0  0  0  0  0  0  0  0
   -7.4094    1.7664    7.2287 C   0  0  0  0  0  0  0  0  0  0  0  0
   -8.4614    0.7479    7.1349 C   0  0  0  0  0  0  0  0  0  0  0  0
   -9.3805    1.0609    8.0206 N   0  0  0  0  0  0  0  0  0  0  0  0
   -8.9938    2.2251    8.6905 N   0  0  0  0  0  0  0  0  0  0  0  0
   -7.8059    2.6459    8.2173 C   0  0  0  0  0  0  0  0  0  0  0  0
    5.3356   -8.6704    0.9393 N   0  0  0  0  0  0  0  0  0  0  0  0
    4.6240   -7.7522    1.6195 C   0  0  0  0  0  0  0  0  0  0  0  0
    5.5712   -8.2136   -0.3604 N   0  0  0  0  0  0  0  0  0  0  0  0
    5.0216   -7.0288   -0.5070 C   0  0  0  0  0  0  0  0  0  0  0  0
   -0.8520    9.8518   -2.8487 C   0  0  0  0  0  0  0  0  0  0  0  0
   -1.8837    5.0220   -2.9722 C   0  0  0  0  0  0  0  0  0  0  0  0
   -3.7320    3.8600   -3.9638 C   0  0  0  0  0  0  0  0  0  0  0  0
   -3.2375    2.6629   -3.4795 C   0  0  0  0  0  0  0  0  0  0  0  0
   -3.0586    5.0393   -3.7123 C   0  0  0  0  0  0  0  0  0  0  0  0
   -2.0647    2.6416   -2.7470 C   0  0  0  0  0  0  0  0  0  0  0  0
   -1.3866    3.8175   -2.4921 C   0  0  0  0  0  0  0  0  0  0  0  0
   -1.3779   11.7552   -4.2144 C   0  0  0  0  0  0  0  0  0  0  0  0
   -1.2958   10.3866   -4.0573 C   0  0  0  0  0  0  0  0  0  0  0  0
   -1.0204   12.5960   -3.1756 C   0  0  0  0  0  0  0  0  0  0  0  0
   -0.5852   12.0709   -1.9720 C   0  0  0  0  0  0  0  0  0  0  0  0
   -0.4990   10.7040   -1.8033 C   0  0  0  0  0  0  0  0  0  0  0  0
   -8.4835   -0.4140    6.2148 C   0  0  0  0  0  0  0  0  0  0  0  0
   -9.7280    2.8550    9.7036 C   0  0  0  0  0  0  0  0  0  0  0  0
   -8.5252   -2.5848    4.4969 C   0  0  0  0  0  0  0  0  0  0  0  0
   -7.3598   -2.2590    5.1672 C   0  0  0  0  0  0  0  0  0  0  0  0
   -9.6713   -1.8335    4.6856 C   0  0  0  0  0  0  0  0  0  0  0  0
   -7.3330   -1.1781    6.0247 C   0  0  0  0  0  0  0  0  0  0  0  0
   -9.6565   -0.7504    5.5406 C   0  0  0  0  0  0  0  0  0  0  0  0
  -11.6646    2.9470   11.1146 C   0  0  0  0  0  0  0  0  0  0  0  0
  -11.1777    4.0987   11.7054 C   0  0  0  0  0  0  0  0  0  0  0  0
  -10.9433    2.3239   10.1152 C   0  0  0  0  0  0  0  0  0  0  0  0
   -9.9654    4.6272   11.3013 C   0  0  0  0  0  0  0  0  0  0  0  0
   -9.2394    4.0087   10.3024 C   0  0  0  0  0  0  0  0  0  0  0  0
    5.0386   -6.1949   -1.7324 C   0  0  0  0  0  0  0  0  0  0  0  0
    5.7709   -9.8980    1.4547 C   0  0  0  0  0  0  0  0  0  0  0  0
    5.3005   -4.8283   -1.6453 C   0  0  0  0  0  0  0  0  0  0  0  0
    5.3156   -4.0572   -2.7896 C   0  0  0  0  0  0  0  0  0  0  0  0
    4.7985   -6.7752   -2.9771 C   0  0  0  0  0  0  0  0  0  0  0  0
    5.0714   -4.6375   -4.0213 C   0  0  0  0  0  0  0  0  0  0  0  0
    4.8162   -5.9939   -4.1145 C   0  0  0  0  0  0  0  0  0  0  0  0
    6.5012  -10.7683    0.6560 C   0  0  0  0  0  0  0  0  0  0  0  0
    6.9292  -11.9778    1.1672 C   0  0  0  0  0  0  0  0  0  0  0  0
    6.6310  -12.3227    2.4727 C   0  0  0  0  0  0  0  0  0  0  0  0
    5.4779  -10.2449    2.7670 C   0  0  0  0  0  0  0  0  0  0  0  0
    5.9040  -11.4583    3.2705 C   0  0  0  0  0  0  0  0  0  0  0  0
  2  1  1  0  0  0  0
  3  1  2  0  0  0  0
  4  2  2  0  0  0  0
  5  3  1  0  0  0  0
  6  4  1  0  0  0  0
  6  5  2  0  0  0  0
  3  7  1  0  0  0  0
  2  8  1  0  0  0  0
  6  9  1  0  0  0  0
 11 10  1  0  0  0  0
 12 10  2  0  0  0  0
  7 11  2  0  0  0  0
 13 12  1  0  0  0  0
 14  7  1  0  0  0  0
 14 13  2  0  0  0  0
 16 15  1  0  0  0  0
 17 15  2  0  0  0  0
 18 16  2  0  0  0  0
  8 17  1  0  0  0  0
 19 18  1  0  0  0  0
 19  8  2  0  0  0  0
 21 20  1  0  0  0  0
  9 20  2  0  0  0  0
 22 21  2  0  0  0  0
 23  9  1  0  0  0  0
 24 22  1  0  0  0  0
 24 23  2  0  0  0  0
 12 25  1  0  0  0  0
 25 26  2  0  0  0  0
 26 27  1  0  0  0  0
 29 28  2  0  0  0  0
 27 28  1  0  0  0  0
 30 29  1  0  0  0  0
 31 27  2  0  0  0  0
 31 30  1  0  0  0  0
 16 32  1  0  0  0  0
 32 33  2  0  0  0  0
 22 34  1  0  0  0  0
 34 35  2  0  0  0  0
 35 36  1  0  0  0  0
 33 37  1  0  0  0  0
 39 38  2  0  0  0  0
 37 38  1  0  0  0  0
 40 39  1  0  0  0  0
 41 37  2  0  0  0  0
 41 40  1  0  0  0  0
 43 42  1  0  0  0  0
 44 42  1  0  0  0  0
 36 43  2  0  0  0  0
 45 44  2  0  0  0  0
 45 36  1  0  0  0  0
 28 46  1  0  0  0  0
 30 47  1  0  0  0  0
 49 48  1  0  0  0  0
 50 48  2  0  0  0  0
 51 49  2  0  0  0  0
 47 50  1  0  0  0  0
 52 51  1  0  0  0  0
 52 47  2  0  0  0  0
 54 53  1  0  0  0  0
 55 53  2  0  0  0  0
 46 54  2  0  0  0  0
 56 55  1  0  0  0  0
 57 46  1  0  0  0  0
 57 56  2  0  0  0  0
 38 58  1  0  0  0  0
 40 59  1  0  0  0  0
 61 60  1  0  0  0  0
 62 60  2  0  0  0  0
 63 61  2  0  0  0  0
 64 62  1  0  0  0  0
 58 63  1  0  0  0  0
 58 64  2  0  0  0  0
 66 65  1  0  0  0  0
 67 65  2  0  0  0  0
 68 66  2  0  0  0  0
 59 67  1  0  0  0  0
 69 68  1  0  0  0  0
 69 59  2  0  0  0  0
 45 70  1  0  0  0  0
 42 71  1  0  0  0  0
 70 72  1  0  0  0  0
 73 72  2  0  0  0  0
 74 70  2  0  0  0  0
 75 73  1  0  0  0  0
 76 74  1  0  0  0  0
 76 75  2  0  0  0  0
 78 77  1  0  0  0  0
 71 77  2  0  0  0  0
 79 78  2  0  0  0  0
 80 71  1  0  0  0  0
 81 79  1  0  0  0  0
 81 80  2  0  0  0  0
M  END
$$$$
