Untitled J. Het. Chem-2
  corina  02131210123D 1   1.00000     0.00000 
CORINA 3.49 0024  01.06.2011
 62 67  0  0  0  0  0  0  0  0999 V2000
   -0.3021    1.4230   -0.0664 O   0  0  0  0  0  0  0  0  0  0  0  0
    2.4417    3.2298    0.0387 O   0  0  0  0  0  0  0  0  0  0  0  0
    8.0947    0.4324    0.1287 C   0  0  0  0  0  0  0  0  0  0  0  0
    8.7371    2.8430    0.2663 C   0  0  0  0  0  0  0  0  0  0  0  0
    8.2562    1.8031   -1.9540 C   0  0  0  0  0  0  0  0  0  0  0  0
   -1.1690   -4.5968   -1.7466 C   0  0  0  0  0  0  0  0  0  0  0  0
   -2.2941   -4.5394    0.4835 C   0  0  0  0  0  0  0  0  0  0  0  0
    1.7998    1.3242    2.4220 C   0  0  0  0  0  0  0  0  0  0  0  0
    0.8410    2.5514   -1.8504 O   0  0  0  0  0  0  0  0  0  0  0  0
    0.1802   -4.8548    0.3404 C   0  0  0  0  0  0  0  0  0  0  0  0
   -1.0287   -4.1583   -0.2875 C   0  0  0  0  0  0  0  0  0  0  0  0
    6.4192    2.2003   -0.3364 C   0  0  0  0  0  0  0  0  0  0  0  0
    5.8423    2.2824    0.9176 C   0  0  0  0  0  0  0  0  0  0  0  0
    4.5116    2.6289    1.0457 C   0  0  0  0  0  0  0  0  0  0  0  0
    3.1515    1.4368    2.7135 C   0  0  0  0  0  0  0  0  0  0  0  0
    3.8257    0.3714    3.2791 C   0  0  0  0  0  0  0  0  0  0  0  0
    3.1547   -0.8054    3.5551 C   0  0  0  0  0  0  0  0  0  0  0  0
    1.8073   -0.9192    3.2663 C   0  0  0  0  0  0  0  0  0  0  0  0
    1.1286    0.1426    2.7006 C   0  0  0  0  0  0  0  0  0  0  0  0
    2.7928   -0.2265   -4.1944 C   0  0  0  0  0  0  0  0  0  0  0  0
    3.4504    0.9211   -3.7918 C   0  0  0  0  0  0  0  0  0  0  0  0
    2.7984    1.8533   -3.0084 C   0  0  0  0  0  0  0  0  0  0  0  0
    3.5154    3.1058   -2.5728 C   0  0  0  0  0  0  0  0  0  0  0  0
    3.8927   -1.9658    4.1714 C   0  0  0  0  0  0  0  0  0  0  0  0
    7.8713    1.8211   -0.4734 C   0  0  0  0  0  0  0  0  0  0  0  0
    3.5069   -1.2427   -5.0478 C   0  0  0  0  0  0  0  0  0  0  0  0
    1.4810   -0.4434   -3.8148 C   0  0  0  0  0  0  0  0  0  0  0  0
    3.7525    2.8932   -0.0850 C   0  0  0  0  0  0  0  0  0  0  0  0
   -0.8082   -1.9255   -1.3958 C   0  0  0  0  0  0  0  0  0  0  0  0
    1.1332    2.3718    1.8695 O   0  0  0  0  0  0  0  0  0  0  0  0
    3.8152   -3.1742    3.2361 C   0  0  0  0  0  0  0  0  0  0  0  0
    2.7608   -1.4104   -6.3729 C   0  0  0  0  0  0  0  0  0  0  0  0
    5.3578   -1.5814    4.3877 C   0  0  0  0  0  0  0  0  0  0  0  0
    4.9341   -0.7650   -5.3230 C   0  0  0  0  0  0  0  0  0  0  0  0
    3.2545   -2.3199    5.5161 C   0  0  0  0  0  0  0  0  0  0  0  0
    3.5508   -2.5845   -4.3138 C   0  0  0  0  0  0  0  0  0  0  0  0
    1.4832    1.6372   -2.6242 C   0  0  0  0  0  0  0  0  0  0  0  0
    0.8249    0.4859   -3.0309 C   0  0  0  0  0  0  0  0  0  0  0  0
   -0.6061    0.2485   -2.6186 C   0  0  0  0  0  0  0  0  0  0  0  0
   -0.6323   -0.5561   -1.3442 C   0  0  0  0  0  0  0  0  0  0  0  0
    3.8848    2.7181    2.4139 C   0  0  0  0  0  0  0  0  0  0  0  0
    5.6657    2.4660   -1.4648 C   0  0  0  0  0  0  0  0  0  0  0  0
    4.3335    2.8128   -1.3422 C   0  0  0  0  0  0  0  0  0  0  0  0
   -0.8349   -2.6650   -0.2282 C   0  0  0  0  0  0  0  0  0  0  0  0
   -0.3400    0.0150    2.3843 C   0  0  0  0  0  0  0  0  0  0  0  0
   -0.4789    0.0766   -0.1195 C   0  0  0  0  0  0  0  0  0  0  0  0
   -0.6845   -2.0361    0.9944 C   0  0  0  0  0  0  0  0  0  0  0  0
   -0.5058   -0.6675    1.0517 C   0  0  0  0  0  0  0  0  0  0  0  0
    0.3147    3.1900   -2.3508 H   0  0  0  0  0  0  0  0  0  0  0  0
    0.5161    3.2950    2.7689 C   0  0  0  0  0  0  0  0  0  0  0  0
    2.2861    4.1804    0.1237 H   0  0  0  0  0  0  0  0  0  0  0  0
    0.6243    1.6966   -0.0214 H   0  0  0  0  0  0  0  0  0  0  0  0
   -0.1711    4.3805    1.9812 C   0  0  0  0  0  0  0  0  0  0  0  0
   -0.2144    4.3166    0.7708 O   0  0  0  0  0  0  0  0  0  0  0  0
   -0.7375    5.4223    2.6217 N   0  0  0  0  0  0  0  0  0  0  0  0
   -1.5001    6.4196    1.8666 C   0  0  0  0  0  0  0  0  0  0  0  0
   -3.1597    7.2667    3.4483 N   0  0  0  0  0  0  0  0  0  0  0  0
   -2.0241    7.4713    2.8103 C   0  0  0  0  0  0  0  0  0  0  0  0
   -3.6562    8.1584    4.2836 C   0  0  0  0  0  0  0  0  0  0  0  0
   -2.9964    9.3492    4.5207 C   0  0  0  0  0  0  0  0  0  0  0  0
   -1.7990    9.5998    3.8678 C   0  0  0  0  0  0  0  0  0  0  0  0
   -1.3084    8.6390    2.9972 C   0  0  0  0  0  0  0  0  0  0  0  0
 14 41  1  0      
 25  3  1  0      
 25  4  1  0      
  5 25  1  0      
 11  6  1  0      
 11  7  1  0      
 15 16  2  0      
  8 15  1  0      
 10 11  1  0      
 11 44  1  0      
  8 19  2  0      
  9 37  1  0      
 27 20  2  0      
 20 21  1  0      
 21 22  2  0      
 22 37  1  0      
 18 19  1  0      
 17 18  2  0      
 16 17  1  0      
 28 14  1  0      
 13 14  2  0      
 12 13  1  0      
 17 24  1  0      
 12 25  1  0      
 26 20  1  0      
 38 27  1  0      
  1 46  1  0      
  2 28  1  0      
 40 29  1  0      
 29 44  2  0      
 24 31  1  0      
 26 32  1  0      
 24 33  1  0      
 26 34  1  0      
 24 35  1  0      
 26 36  1  0      
 38 37  2  0      
 22 23  1  0      
 40 39  1  0      
 38 39  1  0      
  8 30  1  0      
 45 19  1  0      
 15 41  1  0      
 42 43  1  0      
 12 42  2  0      
 47 44  1  0      
 28 43  2  0      
 45 48  1  0      
 48 46  1  0      
 47 48  2  0      
 43 23  1  0      
 49  9  1  0      
 30 50  1  0      
  2 51  1  0      
  1 52  1  0      
 53 50  1  0      
 53 54  2  0      
 40 46  2  0      
 53 55  1  0      
 56 55  1  0      
 57 58  2  0      
 58 56  1  0      
 57 59  1  0      
 59 60  2  0      
 60 61  1  0      
 61 62  2  0      
 62 58  1  0      
M  END
$$$$
