Untitled Document-1
  corina  12091513403D 1   1.00000     0.00000 
CORINA 3.60 0026  08.12.2014
 24 24  0  0  0  0  0  0  0  0999 V2000
   -0.0169    1.3949    0.0097 C   0  0  0  0  0  0  0  0  0  0  0  0
    0.0021   -0.0041    0.0020 C   0  0  0  0  0  0  0  0  0  0  0  0
    1.2068   -0.6780   -0.0132 C   0  0  0  0  0  0  0  0  0  0  0  0
    2.4146    0.0415   -0.0213 C   0  0  0  0  0  0  0  0  0  0  0  0
    2.3956    1.4404   -0.0146 C   0  0  0  0  0  0  0  0  0  0  0  0
    1.1909    2.1143    0.0020 C   0  0  0  0  0  0  0  0  0  0  0  0
    3.6964   -0.6755   -0.0365 C   0  0  0  0  0  0  0  0  0  0  0  0
    4.8571    0.0159   -0.0444 C   0  0  0  0  0  0  0  0  0  0  0  0
    6.1327   -0.6976   -0.0595 C   0  0  0  0  0  0  0  0  0  0  0  0
   -1.2987    2.1119    0.0197 C   0  0  0  0  0  0  0  0  0  0  0  0
   -2.4595    1.4205    0.0214 C   0  0  0  0  0  0  0  0  0  0  0  0
   -3.7351    2.1340    0.0314 C   0  0  0  0  0  0  0  0  0  0  0  0
    1.1725    3.4720    0.0082 O   0  0  0  0  0  0  0  0  0  0  0  0
    1.2252   -2.0356   -0.0197 O   0  0  0  0  0  0  0  0  0  0  0  0
   -4.8943    1.4436    0.0331 O   0  0  0  0  0  0  0  0  0  0  0  0
   -3.7516    3.3502    0.0381 O   0  0  0  0  0  0  0  0  0  0  0  0
   -6.1032    2.2055    0.0430 C   0  0  0  0  0  0  0  0  0  0  0  0
    7.2918   -0.0071   -0.0673 O   0  0  0  0  0  0  0  0  0  0  0  0
    6.1492   -1.9138   -0.0649 O   0  0  0  0  0  0  0  0  0  0  0  0
    8.5007   -0.7690   -0.0820 C   0  0  0  0  0  0  0  0  0  0  0  0
    2.4368    4.1380   -0.0033 C   0  0  0  0  0  0  0  0  0  0  0  0
   -0.0391   -2.7017   -0.0103 C   0  0  0  0  0  0  0  0  0  0  0  0
   -7.3038    1.2571    0.0435 C   0  0  0  0  0  0  0  0  0  0  0  0
    9.7012    0.1794   -0.0891 C   0  0  0  0  0  0  0  0  0  0  0  0
  1  2  2  0      
  2  3  1  0      
  3  4  2  0      
  4  5  1  0      
  5  6  2  0      
  6  1  1  0      
  4  7  1  0      
  7  8  2  0      
  8  9  1  0      
  1 10  1  0      
 10 11  2  0      
 11 12  1  0      
  6 13  1  0      
  3 14  1  0      
 12 15  1  0      
 12 16  2  0      
 15 17  1  0      
  9 18  1  0      
  9 19  2  0      
 18 20  1  0      
 13 21  1  0      
 14 22  1  0      
 17 23  1  0      
 20 24  1  0      
M  STY  1   1 GEN
M  SLB  1   1   1
M  SAL   1  1  17
M  SBL   1  2  17  23
M  SDI   1  4   -4.1214    1.0869   -4.1214    0.1416
M  SDI   1  4   -4.5082    0.1416   -4.5082    1.0869
M  SBT  1   1   1
M  STY  1   2 GEN
M  SLB  1   2   2
M  SAL   2  1  20
M  SBL   2  2  24  20
M  SDI   2  4    4.5153   -0.2881    4.5153   -1.2334
M  SDI   2  4    4.1286   -1.2334    4.1286   -0.2881
M  SBT  1   2   1
M  END
$$$$
