
  corina  02131209483D 1   1.00000     0.00000 
CORINA 3.49 0024  01.06.2011
 25 27  0  0  0  0  0  0  0  0  3 V2000
   -0.0183    1.4426    0.0469 N   0  0  0  0  0  0  0  0  0  0  0  0
    0.0186    0.0517    0.2005 N   0  0  0  0  0  0  0  0  0  0  0  0
    1.2607    1.8951   -0.0242 C   0  0  0  0  0  0  0  0  0  0  0  0
    1.2652   -0.3382    0.2233 C   0  0  0  0  0  0  0  0  0  0  0  0
    2.0885    0.7988    0.0837 C   0  0  0  0  0  0  0  0  0  0  0  0
   -1.1745    2.2310   -0.0268 C   0  0  0  0  0  0  0  0  0  0  0  0
    1.7423   -1.7598    0.3735 C   0  0  0  0  0  0  0  0  0  0  0  0
    3.5666    0.8117    0.0576 C   0  0  0  0  0  0  0  0  0  0  0  0
    4.2109    1.4583   -0.9152 C   0  0  0  0  0  0  0  0  0  0  0  0
    5.6010    1.4705   -0.9398 N   0  0  0  0  0  0  0  0  0  0  0  0
    6.2644    2.6435   -0.9575 C   0  0  0  0  0  0  0  0  0  0  0  0
    7.7359    2.6582   -1.0946 C   0  0  0  0  0  0  0  0  0  0  0  0
    3.4320    2.1756   -1.9876 C   0  0  0  0  0  0  0  0  0  0  0  0
    5.6524    3.6896   -0.8606 O   0  0  0  0  0  0  0  0  0  0  0  0
    9.7997    3.8781   -1.2415 C   0  0  0  0  0  0  0  0  0  0  0  0
   10.4931    2.6859   -1.3515 C   0  0  0  0  0  0  0  0  0  0  0  0
    8.4262    3.8715   -1.1132 C   0  0  0  0  0  0  0  0  0  0  0  0
    9.8157    1.4796   -1.3280 C   0  0  0  0  0  0  0  0  0  0  0  0
    8.4422    1.4588   -1.2003 C   0  0  0  0  0  0  0  0  0  0  0  0
   -2.3128    1.7399   -0.6520 C   0  0  0  0  0  0  0  0  0  0  0  0
   -3.4507    2.5194   -0.7231 C   0  0  0  0  0  0  0  0  0  0  0  0
   -3.4571    3.7878   -0.1723 C   0  0  0  0  0  0  0  0  0  0  0  0
   -1.1859    3.5028    0.5303 C   0  0  0  0  0  0  0  0  0  0  0  0
   -2.3249    4.2799    0.4506 C   0  0  0  0  0  0  0  0  0  0  0  0
    1.7592    3.5468   -0.2164 Cl  0  0  0  0  0  0  0  0  0  0  0  0
  2  1  1  0  0  0  0
  3  1  1  0  0  0  0
  4  2  2  0  0  0  0
  5  3  2  0  0  0  0
  5  4  1  0  0  0  0
  1  6  1  0  0  0  0
  4  7  1  0  0  0  0
  5  8  1  0  0  0  0
  8  9  2  0  0  0  0
  9 10  1  0  0  0  0
 10 11  1  0  0  0  0
 11 12  1  0  0  0  0
  9 13  1  0  0  0  0
 11 14  2  0  0  0  0
 16 15  1  0  0  0  0
 17 15  2  0  0  0  0
 18 16  2  0  0  0  0
 12 17  1  0  0  0  0
 19 18  1  0  0  0  0
 19 12  2  0  0  0  0
 21 20  1  0  0  0  0
  6 20  2  0  0  0  0
 22 21  2  0  0  0  0
 23  6  1  0  0  0  0
 24 22  1  0  0  0  0
 24 23  2  0  0  0  0
  3 25  1  0  0  0  0
A   13
COOH
M  END
$$$$
