
  corina  12080917083D 1   1.00000     0.00000 
CORINA 3.46 0026  05.08.2008
 39 40  0  0  0  0  0  0  0  0999 V2000
    1.3228    0.6896   -0.1508 C   0  0  0  0  0  0  0  0  0  0  0  0
    2.0817    1.9940   -0.0477 C   0  0  1  0  0  0  0  0  0  0  0  0
    2.6203    2.1328    1.3800 C   0  0  1  0  0  0  0  0  0  0  0  0
    3.4448    0.8942    1.7348 C   0  0  2  0  0  0  0  0  0  0  0  0
    2.5476   -0.3446    1.7308 C   0  0  3  0  0  0  0  0  0  0  0  0
    2.0062   -0.5765    0.3162 C   0  0  3  0  0  0  0  0  0  0  0  0
    3.3592   -1.5639    2.1729 C   0  0  0  0  0  0  0  0  0  0  0  0
    1.4565   -0.1457    2.6320 O   0  0  0  0  0  0  0  0  0  0  0  0
    4.2405    0.7663    1.0009 H   0  0  0  0  0  0  0  0  0  0  0  0
    4.0496    1.0703    3.1038 C   0  0  0  0  0  0  0  0  0  0  0  0
    1.2884   -1.3967    0.3288 H   0  0  0  0  0  0  0  0  0  0  0  0
    3.1442   -0.9141   -0.6122 C   0  0  0  0  0  0  0  0  0  0  0  0
    2.8891   -1.3761   -1.8464 O   0  0  0  0  0  0  0  0  0  0  0  0
    4.2864   -0.7690   -0.2456 O   0  0  0  0  0  0  0  0  0  0  0  0
    4.0339   -1.6806   -2.6861 C   0  0  0  0  0  0  0  0  0  0  0  0
    0.2019    0.6590   -0.5991 O   0  0  0  0  0  0  0  0  0  0  0  0
    3.2300    1.9901   -1.0237 C   0  0  0  0  0  0  0  0  0  0  0  0
    4.3009    1.5376   -0.6947 O   0  0  0  0  0  0  0  0  0  0  0  0
    3.0630    2.4892   -2.2585 O   0  0  0  0  0  0  0  0  0  0  0  0
    4.2121    2.4526   -3.1453 C   0  0  0  0  0  0  0  0  0  0  0  0
    3.4910    3.3594    1.4718 C   0  0  0  0  0  0  0  0  0  0  0  0
    1.7864    2.2259    2.0757 H   0  0  0  0  0  0  0  0  0  0  0  0
    3.7842    0.2891    3.9865 O   0  0  0  0  0  0  0  0  0  0  0  0
    4.8831    2.0950    3.3426 O   0  0  0  0  0  0  0  0  0  0  0  0
    5.4281    2.2026    4.6841 C   0  0  0  0  0  0  0  0  0  0  0  0
    2.4608   -2.7726    2.2270 C   0  0  0  0  0  0  0  0  0  0  0  0
    1.2713   -2.6494    2.0543 O   0  0  0  0  0  0  0  0  0  0  0  0
    2.9820   -3.9860    2.4672 O   0  0  0  0  0  0  0  0  0  0  0  0
    2.0573   -5.1049    2.5051 C   0  0  0  0  0  0  0  0  0  0  0  0
    4.8450    3.2663    1.2107 C   0  0  0  0  0  0  0  0  0  0  0  0
    5.6447    4.3921    1.2948 C   0  0  0  0  0  0  0  0  0  0  0  0
    5.0878    5.6115    1.6406 C   0  0  0  0  0  0  0  0  0  0  0  0
    3.7323    5.7029    1.9016 C   0  0  0  0  0  0  0  0  0  0  0  0
    2.9339    4.5783    1.8116 C   0  0  0  0  0  0  0  0  0  0  0  0
    1.4133    2.8252   -0.2723 H   0  0  0  0  0  0  0  0  0  0  0  0
    6.0900    7.0250    1.7471 Cl  0  0  0  0  0  0  0  0  0  0  0  0
    4.1649   -1.7417    1.4607 H   0  0  0  0  0  0  0  0  0  0  0  0
    3.7814   -1.3805    3.1609 H   0  0  0  0  0  0  0  0  0  0  0  0
    7.3456    4.2756    0.9675 Cl  0  0  0  0  0  0  0  0  0  0  0  0
 17 19  1  0  0  0  0
  4  3  1  0  0  0  0
 19 20  1  0  0  0  0
  4 10  1  0  0  0  0
  3 21  1  0  0  0  0
  4  5  1  0  0  0  0
  3 22  1  0  0  0  0
  6 11  1  0  0  0  0
 10 23  2  0  0  0  0
  5  6  1  0  0  0  0
 10 24  1  0  0  0  0
  6 12  1  0  0  0  0
 24 25  1  0  0  0  0
  1  6  1  0  0  0  0
  7 26  1  0  0  0  0
 12 13  1  0  0  0  0
 26 27  2  0  0  0  0
 26 28  1  0  0  0  0
 12 14  2  0  0  0  0
 28 29  1  0  0  0  0
  5  7  1  0  0  0  0
 21 30  2  0  0  0  0
 13 15  1  0  0  0  0
 30 31  1  0  0  0  0
  1  2  1  0  0  0  0
 31 32  2  0  0  0  0
  1 16  2  0  0  0  0
 32 33  1  0  0  0  0
  5  8  1  0  0  0  0
 33 34  2  0  0  0  0
 34 21  1  0  0  0  0
  2 17  1  0  0  0  0
  2 35  1  0  0  0  0
  2  3  1  0  0  0  0
 32 36  1  0  0  0  0
 17 18  2  0  0  0  0
  7 37  1  0  0  0  0
  4  9  1  0  0  0  0
  7 38  1  0  0  0  0
 31 39  1  0  0  0  0
M  END
$$$$
