
  corina  12080917093D 1   1.00000     0.00000 
CORINA 3.46 0026  05.08.2008
 35 37  0  0  0  0  0  0  0  0  1 V2000
    0.6946    0.5339   -1.9349 S   0  0  0  0  0  0  0  0  0  0  0  0
   -3.0195   -2.2182   -3.7289 C   0  0  0  0  0  0  0  0  0  0  0  0
   -3.5788   -2.6074   -2.4729 O   0  0  0  0  0  0  0  0  0  0  0  0
    0.6051    0.5237    0.5803 N   0  0  0  0  0  0  0  0  0  0  0  0
   -0.0423    0.0287   -0.4206 C   0  0  0  0  0  0  0  0  0  0  0  0
   -1.2334   -0.8393   -0.3096 C   0  0  0  0  0  0  0  0  0  0  0  0
   -1.8578   -1.3209   -1.4618 C   0  0  0  0  0  0  0  0  0  0  0  0
   -1.7328   -1.1838    0.9473 C   0  0  0  0  0  0  0  0  0  0  0  0
   -2.9681   -2.1371   -1.3528 C   0  0  0  0  0  0  0  0  0  0  0  0
   -2.8408   -1.9989    1.0497 C   0  0  0  0  0  0  0  0  0  0  0  0
   -3.4617   -2.4773   -0.0947 C   0  0  0  0  0  0  0  0  0  0  0  0
    3.8121    2.8412   -0.5864 C   0  0  0  0  0  0  0  0  0  0  0  0
    3.5773    2.7001    0.7742 C   0  0  0  0  0  0  0  0  0  0  0  0
    2.9873    2.2184   -1.4957 C   0  0  0  0  0  0  0  0  0  0  0  0
    2.5364    1.9493    1.2273 C   0  0  0  0  0  0  0  0  0  0  0  0
    1.9158    1.4457   -1.0512 C   0  0  0  0  0  0  0  0  0  0  0  0
    1.6724    1.2979    0.3192 C   0  0  0  0  0  0  0  0  0  0  0  0
   -5.5285   -5.5441   -0.1238 C   0  0  0  0  0  0  0  0  0  0  0  0
   -3.2291   -5.0357   -0.2015 O   0  0  0  0  0  0  0  0  0  0  0  0
   -4.3527   -4.6015   -0.1076 C   0  0  0  0  0  0  0  0  0  0  0  0
   -4.5538   -3.2795    0.0111 O   0  0  0  0  0  0  0  0  0  0  0  0
   -5.0272   -6.9824   -0.2676 C   0  0  0  0  0  0  0  0  0  0  0  0
   -6.2209   -7.9393   -0.2841 C   0  0  0  0  0  0  0  0  0  0  0  0
   -5.7196   -9.3777   -0.4279 C   0  0  0  0  0  0  0  0  0  0  0  0
   -6.9133  -10.3346   -0.4443 C   0  0  0  0  0  0  0  0  0  0  0  0
   -6.4120  -11.7730   -0.5881 C   0  0  0  0  0  0  0  0  0  0  0  0
   -7.6057  -12.7299   -0.6046 C   0  0  0  0  0  0  0  0  0  0  0  0
   -7.1043  -14.1682   -0.7484 C   0  0  0  0  0  0  0  0  0  0  0  0
   -8.2981  -15.1251   -0.7648 C   0  0  0  0  0  0  0  0  0  0  0  0
   -7.7967  -16.5635   -0.9087 C   0  0  0  0  0  0  0  0  0  0  0  0
   -8.9904  -17.5204   -0.9251 C   0  0  0  0  0  0  0  0  0  0  0  0
   -8.4891  -18.9588   -1.0689 C   0  0  0  0  0  0  0  0  0  0  0  0
   -9.6828  -19.9157   -1.0854 C   0  0  0  0  0  0  0  0  0  0  0  0
   -9.1815  -21.3540   -1.2292 C   0  0  0  0  0  0  0  0  0  0  0  0
  -10.3752  -22.3109   -1.2456 C   0  0  0  0  0  0  0  0  0  0  0  0
  7  6  1  0  0  0  0
  8  6  2  0  0  0  0
  9  7  2  0  0  0  0
 10  8  1  0  0  0  0
 11  9  1  0  0  0  0
 11 10  2  0  0  0  0
  5  6  1  0  0  0  0
  4  5  2  0  0  0  0
  3  9  1  0  0  0  0
  2  3  1  0  0  0  0
  1  5  1  0  0  0  0
 13 12  1  0  0  0  0
 14 12  2  0  0  0  0
 15 13  2  0  0  0  0
 16 14  1  0  0  0  0
 17 15  1  0  0  0  0
 17 16  2  0  0  0  0
  1 16  1  0  0  0  0
  4 17  1  0  0  0  0
 20 21  1  0  0  0  0
 19 20  2  0  0  0  0
 18 20  1  0  0  0  0
 22 18  1  0  0  0  0
 23 22  1  0  0  0  0
 24 23  1  0  0  0  0
 25 24  1  0  0  0  0
 26 25  1  0  0  0  0
 27 26  1  0  0  0  0
 28 27  1  0  0  0  0
 29 28  1  0  0  0  0
 30 29  1  0  0  0  0
 31 30  1  0  0  0  0
 32 31  1  0  0  0  0
 33 32  1  0  0  0  0
 34 33  1  0  0  0  0
 35 34  1  0  0  0  0
 11 21  1  0  0  0  0
M  END
$$$$
