
  corina  02131209543D 1   1.00000     0.00000 
CORINA 3.49 0024  01.06.2011
 16 18  0  0  0  0  0  0  0  0  1 V2000
   -0.0168    1.3892    0.0097 N   0  0  0  0  0  0  0  0  0  0  0  0
   -2.4180   -0.0002    0.0247 N   0  0  0  0  0  0  0  0  0  0  0  0
   -1.2528   -2.0725    0.0020 C   0  0  0  0  0  0  0  0  0  0  0  0
   -1.2196   -0.7109    0.0094 C   0  0  0  0  0  0  0  0  0  0  0  0
    0.0021   -0.0041    0.0020 C   0  0  0  0  0  0  0  0  0  0  0  0
    1.1990   -0.6538   -0.0129 C   0  0  0  0  0  0  0  0  0  0  0  0
    2.3807   -2.7232   -0.0358 N   0  0  0  0  0  0  0  0  0  0  0  0
    1.2277   -2.0639   -0.0212 C   0  0  0  0  0  0  0  0  0  0  0  0
   -0.0446   -2.8000   -0.0135 C   0  0  0  0  0  0  0  0  0  0  0  0
   -0.0480   -4.1283   -0.0215 N   0  0  0  0  0  0  0  0  0  0  0  0
    1.1401   -6.1980   -0.0459 C   0  0  0  0  0  0  0  0  0  0  0  0
    1.1073   -4.7879   -0.0365 C   0  0  0  0  0  0  0  0  0  0  0  0
    2.3766   -4.0536   -0.0442 C   0  0  0  0  0  0  0  0  0  0  0  0
    3.5825   -4.7851   -0.0601 C   0  0  0  0  0  0  0  0  0  0  0  0
    3.5436   -6.1425   -0.0688 C   0  0  0  0  0  0  0  0  0  0  0  0
    2.3361   -6.8411   -0.0624 C   0  0  0  0  0  0  0  0  0  0  0  0
  4  2  1  0
  1  5  1  0
  8  6  1  0
  6  5  2  0
  5  4  1  0
  4  3  2  0
  3  9  1  0
 12 10  1  0
 10  9  2  0
  9  8  1  0
  8  7  2  0
  7 13  1  0
 16 15  1  0
 15 14  2  0
 14 13  1  0
 13 12  2  0
 12 11  1  0
 11 16  2  0
M  END
$$$$
