m526.cdx
  corina  12080917093D 1   1.00000     0.00000 
CORINA 3.46 0026  05.08.2008
 28 30  0  0  0  0  0  0  0  0999 V2000
    0.5619    3.3871    3.0658 C   0  0  0  0  0  0  0  0  0  0  0  0
    0.4269    2.0420    3.3603 C   0  0  0  0  0  0  0  0  0  0  0  0
    1.4964    1.1802    3.1935 C   0  0  0  0  0  0  0  0  0  0  0  0
    2.7055    1.6579    2.7318 C   0  0  0  0  0  0  0  0  0  0  0  0
    2.8483    3.0137    2.4324 C   0  0  0  0  0  0  0  0  0  0  0  0
    1.7654    3.8776    2.6029 C   0  0  0  0  0  0  0  0  0  0  0  0
    4.1413    3.5326    1.9377 C   0  0  0  0  0  0  0  0  0  0  0  0
    5.0829    2.7781    1.7909 O   0  0  0  0  0  0  0  0  0  0  0  0
    4.2759    4.8423    1.6495 N   0  0  0  0  0  0  0  0  0  0  0  0
    5.5572    5.3565    1.1593 C   0  0  0  0  0  0  0  0  0  0  0  0
    5.5399    5.3947   -0.3091 N   0  0  0  0  0  0  0  0  0  0  0  0
    6.7224    5.8704   -0.8004 N   0  0  0  0  0  0  0  0  0  0  0  0
    6.9033    5.9816   -2.1313 C   0  0  0  0  0  0  0  0  0  0  0  0
    6.0161    5.6592   -2.8928 O   0  0  0  0  0  0  0  0  0  0  0  0
    8.2078    6.5064   -2.6733 C   0  0  0  0  0  0  0  0  0  0  0  0
    9.1990    5.3762   -2.7787 C   0  0  0  0  0  0  0  0  0  0  0  0
    7.9807    7.1043   -4.0378 C   0  0  0  0  0  0  0  0  0  0  0  0
    8.7203    7.5089   -1.7933 O   0  0  0  0  0  0  0  0  0  0  0  0
   10.5215    5.5822   -2.4330 C   0  0  0  0  0  0  0  0  0  0  0  0
   11.4307    4.5455   -2.5297 C   0  0  0  0  0  0  0  0  0  0  0  0
   11.0174    3.3026   -2.9718 C   0  0  0  0  0  0  0  0  0  0  0  0
    9.6948    3.0964   -3.3167 C   0  0  0  0  0  0  0  0  0  0  0  0
    8.7846    4.1320   -3.2158 C   0  0  0  0  0  0  0  0  0  0  0  0
    7.5988    6.2957   -5.0919 C   0  0  0  0  0  0  0  0  0  0  0  0
    7.3905    6.8441   -6.3436 C   0  0  0  0  0  0  0  0  0  0  0  0
    7.5636    8.2013   -6.5411 C   0  0  0  0  0  0  0  0  0  0  0  0
    7.9446    9.0101   -5.4868 C   0  0  0  0  0  0  0  0  0  0  0  0
    8.1487    8.4623   -4.2341 C   0  0  0  0  0  0  0  0  0  0  0  0
  1  2  2  0      
  2  3  1  0      
  3  4  2  0      
  4  5  1  0      
  5  6  2  0      
  6  1  1  0      
  5  7  1  0      
  7  8  2  0      
  7  9  1  0      
  9 10  1  0      
 10 11  1  0      
 11 12  1  0      
 12 13  1  0      
 13 14  2  0      
 13 15  1  0      
 15 16  1  0      
 15 17  1  0      
 15 18  1  0      
 16 19  2  0      
 19 20  1  0      
 20 21  2  0      
 21 22  1  0      
 22 23  2  0      
 23 16  1  0      
 17 24  2  0      
 24 25  1  0      
 25 26  2  0      
 26 27  1  0      
 27 28  2  0      
 28 17  1  0      
M  END
$$$$
