m439.skc
  corina  12080917093D 1   1.00000     0.00000 
CORINA 3.46 0026  05.08.2008
 37 41  0  0  0  0  0  0  0  0999 V2000
    0.0137    1.1710   -0.1148 C   0  0  0  0  0  0  0  0  0  0  0  0
    0.4798   -0.2601   -0.0011 C   0  0  0  0  0  0  0  0  0  0  0  0
    1.7460    0.1911    0.1324 N   0  0  0  0  0  0  0  0  0  0  0  0
    1.4674    1.6291    0.0408 C   0  0  0  0  0  0  0  0  0  0  0  0
   -0.0541   -1.3489   -0.0205 O   0  0  0  0  0  0  0  0  0  0  0  0
    2.0395    2.2903   -1.1865 C   0  0  0  0  0  0  0  0  0  0  0  0
    3.0074   -0.5316    0.3132 C   0  0  0  0  0  0  0  0  0  0  0  0
    2.9413   -1.3594    1.5982 C   0  0  0  0  0  0  0  0  0  0  0  0
    3.2351   -1.4465   -0.8625 C   0  0  0  0  0  0  0  0  0  0  0  0
    2.4267   -1.4903   -1.7593 O   0  0  0  0  0  0  0  0  0  0  0  0
    4.3361   -2.2127   -0.9133 O   0  0  0  0  0  0  0  0  0  0  0  0
    4.4899   -3.0695   -2.0754 C   0  0  0  0  0  0  0  0  0  0  0  0
    5.7939   -3.8609   -1.9566 C   0  0  0  0  0  0  0  0  0  0  0  0
    2.8368   -0.4367    2.7852 C   0  0  0  0  0  0  0  0  0  0  0  0
    1.5940   -0.0450    3.2475 C   0  0  0  0  0  0  0  0  0  0  0  0
    1.4955    0.8007    4.3354 C   0  0  0  0  0  0  0  0  0  0  0  0
    2.6450    1.2569    4.9642 C   0  0  0  0  0  0  0  0  0  0  0  0
    3.8908    0.8624    4.4984 C   0  0  0  0  0  0  0  0  0  0  0  0
    3.9838    0.0121    3.4136 C   0  0  0  0  0  0  0  0  0  0  0  0
    2.3268    3.6473   -1.1738 C   0  0  0  0  0  0  0  0  0  0  0  0
    2.8539    4.2531   -2.3054 C   0  0  0  0  0  0  0  0  0  0  0  0
    3.0913    3.5040   -3.4413 C   0  0  0  0  0  0  0  0  0  0  0  0
    2.8037    2.1514   -3.4515 C   0  0  0  0  0  0  0  0  0  0  0  0
    2.2837    1.5443   -2.3236 C   0  0  0  0  0  0  0  0  0  0  0  0
   -0.5570    1.4914   -1.4255 N   0  0  0  0  0  0  0  0  0  0  0  0
   -0.5933    0.6421   -2.4681 C   0  0  0  0  0  0  0  0  0  0  0  0
   -1.1188    2.6717   -1.7431 C   0  0  0  0  0  0  0  0  0  0  0  0
   -1.5759    2.6130   -3.1475 C   0  0  0  0  0  0  0  0  0  0  0  0
   -1.2420    1.3235   -3.6082 C   0  0  0  0  0  0  0  0  0  0  0  0
   -1.5483    0.9556   -4.9085 C   0  0  0  0  0  0  0  0  0  0  0  0
   -2.1782    1.8606   -5.7485 C   0  0  0  0  0  0  0  0  0  0  0  0
   -2.5025    3.1264   -5.2978 C   0  0  0  0  0  0  0  0  0  0  0  0
   -2.2093    3.5057   -3.9972 C   0  0  0  0  0  0  0  0  0  0  0  0
   -1.2293    3.6267   -1.0010 O   0  0  0  0  0  0  0  0  0  0  0  0
   -0.1648   -0.4942   -2.4720 O   0  0  0  0  0  0  0  0  0  0  0  0
    2.5507    2.0893    6.0343 O   0  0  0  0  0  0  0  0  0  0  0  0
    2.0919    4.3823   -0.0551 O   0  0  0  0  0  0  0  0  0  0  0  0
  1  2  1  0  0  0
  2  3  1  0  0  0
  3  4  1  0  0  0
  4  1  1  0  0  0
  2  5  2  0  0  0
  4  6  1  0  0  0
  3  7  1  0  0  0
  7  8  1  0  0  0
  7  9  1  0  0  0
  9 10  2  0  0  0
  9 11  1  0  0  0
 11 12  1  0  0  0
 12 13  1  0  0  0
  8 14  1  0  0  0
 14 15  2  0  0  0
 15 16  1  0  0  0
 16 17  2  0  0  0
 17 18  1  0  0  0
 18 19  2  0  0  0
 19 14  1  0  0  0
  6 20  2  0  0  0
 20 21  1  0  0  0
 21 22  2  0  0  0
 22 23  1  0  0  0
 23 24  2  0  0  0
 24  6  1  0  0  0
  1 25  1  0  0  0
 25 26  1  0  0  0
 26 29  1  0  0  0
 28 27  1  0  0  0
 27 25  1  0  0  0
 28 29  2  0  0  0
 29 30  1  0  0  0
 30 31  2  0  0  0
 31 32  1  0  0  0
 32 33  2  0  0  0
 33 28  1  0  0  0
 27 34  2  0  0  0
 26 35  2  0  0  0
 17 36  1  0  0  0
 20 37  1  0  0  0
M  STY  1   1 SUP
M  SLB  1   1   1
M  SAL   1  1  36
M  SBL   1  1  40
M  SMT   1 O
M  SBV   1 40   -7.6694    7.2071
M  STY  1   2 SUP
M  SLB  1   2   2
M  SAL   2  1  37
M  SBL   2  1  41
M  SMT   2 O
M  SBV   2 41   -8.0567    6.7083
M  END
$$$$
