
  corina  12080917083D 1   1.00000     0.00000 
CORINA 3.46 0026  05.08.2008
 34 38  0  0  0  0  0  0  0  0999 V2000
   -0.0033    1.5213   -0.0166 N   0  0  0  0  0  0  0  0  0  0  0  0
    1.2370    1.9379   -0.0052 C   0  0  0  0  0  0  0  0  0  0  0  0
    2.0743    0.8185   -0.0554 C   0  0  0  0  0  0  0  0  0  0  0  0
    1.2921   -0.2851   -0.0972 C   0  0  0  0  0  0  0  0  0  0  0  0
    0.0060    0.1214   -0.0722 N   0  0  3  0  0  0  0  0  0  0  0  0
   -2.5831   -1.0949    1.9529 C   0  0  0  0  0  0  0  0  0  0  0  0
   -3.3986   -0.3285    2.7139 C   0  0  0  0  0  0  0  0  0  0  0  0
   -3.4197    0.9567    2.1624 C   0  0  0  0  0  0  0  0  0  0  0  0
   -2.6453    0.9614    1.1077 N   0  0  0  0  0  0  0  0  0  0  0  0
   -2.1035   -0.3216    0.9570 N   0  0  3  0  0  0  0  0  0  0  0  0
   -1.1755   -0.7453   -0.0952 C   0  0  0  0  0  0  0  0  0  0  0  0
    1.7718   -1.7123   -0.1610 C   0  0  0  0  0  0  0  0  0  0  0  0
   -2.2673   -2.5512    2.1779 C   0  0  0  0  0  0  0  0  0  0  0  0
   -4.1987    2.1335    2.6907 C   0  0  0  0  0  0  0  0  0  0  0  0
    1.6849    3.3755    0.0525 C   0  0  0  0  0  0  0  0  0  0  0  0
   -3.2666    3.1573    3.1815 N   0  0  3  0  0  0  0  0  0  0  0  0
    1.0750    4.0323    1.2162 N   0  0  3  0  0  0  0  0  0  0  0  0
   -2.2768    2.5734    4.0965 C   0  0  0  0  0  0  0  0  0  0  0  0
   -2.6080    3.8486    2.0650 C   0  0  0  0  0  0  0  0  0  0  0  0
    1.7368    5.3115    1.5056 C   0  0  0  0  0  0  0  0  0  0  0  0
   -0.3688    4.2192    1.0201 C   0  0  0  0  0  0  0  0  0  0  0  0
   -1.1032    3.9267    2.3301 C   0  0  0  0  0  0  0  0  0  0  0  0
    3.1564    5.0552    1.9417 C   0  0  0  0  0  0  0  0  0  0  0  0
   -2.9395    2.2431    5.4091 C   0  0  0  0  0  0  0  0  0  0  0  0
   -3.3856    0.9578    5.6540 C   0  0  0  0  0  0  0  0  0  0  0  0
   -3.9936    0.6549    6.8579 C   0  0  0  0  0  0  0  0  0  0  0  0
   -4.1549    1.6370    7.8172 C   0  0  0  0  0  0  0  0  0  0  0  0
   -3.7080    2.9221    7.5727 C   0  0  0  0  0  0  0  0  0  0  0  0
   -3.0962    3.2240    6.3704 C   0  0  0  0  0  0  0  0  0  0  0  0
    4.1700    5.0077    1.0030 C   0  0  0  0  0  0  0  0  0  0  0  0
    5.4721    4.7726    1.4030 C   0  0  0  0  0  0  0  0  0  0  0  0
    5.7607    4.5854    2.7419 C   0  0  0  0  0  0  0  0  0  0  0  0
    4.7473    4.6337    3.6807 C   0  0  0  0  0  0  0  0  0  0  0  0
    3.4458    4.8731    3.2811 C   0  0  0  0  0  0  0  0  0  0  0  0
  6  7  2  0  0  0  0
 15 17  1  0  0  0  0
  7  8  1  0  0  0  0
 16 18  1  0  0  0  0
  8  9  2  0  0  0  0
 16 19  1  0  0  0  0
  9 10  1  0  0  0  0
 17 20  1  0  0  0  0
  6 10  1  0  0  0  0
 17 21  1  0  0  0  0
  1  5  1  0  0  0  0
 21 22  1  0  0  0  0
 19 22  1  0  0  0  0
  5 11  1  0  0  0  0
 20 23  1  0  0  0  0
 10 11  1  0  0  0  0
 18 24  1  0  0  0  0
  4 12  1  0  0  0  0
  1  2  2  0  0  0  0
  6 13  1  0  0  0  0
  2  3  1  0  0  0  0
 24 25  2  0  0  0  0
 25 26  1  0  0  0  0
 26 27  2  0  0  0  0
 27 28  1  0  0  0  0
 28 29  2  0  0  0  0
 24 29  1  0  0  0  0
  8 14  1  0  0  0  0
  3  4  2  0  0  0  0
  2 15  1  0  0  0  0
  4  5  1  0  0  0  0
 14 16  1  0  0  0  0
 23 30  2  0  0  0  0
 30 31  1  0  0  0  0
 31 32  2  0  0  0  0
 32 33  1  0  0  0  0
 33 34  2  0  0  0  0
 23 34  1  0  0  0  0
M  END
$$$$
