Untitled Document-4
  corina  10281407203D 1   1.00000     0.00000 
CORINA 3.49 0023  12.04.2013
 12 12  0  0  0  0  0  0  0  0999 V2000
   -0.0167    1.3779    0.0096 C   0  0  0  0  0  0  0  0  0  0  0  0
    0.0021   -0.0041    0.0020 C   0  0  0  0  0  0  0  0  0  0  0  0
    1.2086   -0.6790   -0.0132 C   0  0  0  0  0  0  0  0  0  0  0  0
    2.3961    0.0283   -0.0212 C   0  0  0  0  0  0  0  0  0  0  0  0
    2.3773    1.4107   -0.0145 C   0  0  0  0  0  0  0  0  0  0  0  0
    1.1711    2.0854    0.0021 C   0  0  0  0  0  0  0  0  0  0  0  0
   -1.3319    2.1136    0.0199 C   0  0  0  0  0  0  0  0  0  0  0  0
   -1.2926   -0.7753    0.0108 C   0  0  0  0  0  0  0  0  0  0  0  0
    3.6720    2.1819   -0.0223 C   0  0  0  0  0  0  0  0  0  0  0  0
    3.7112   -0.7073   -0.0368 C   0  0  0  0  0  0  0  0  0  0  0  0
    3.4692   -2.1157   -0.0407 O   0  0  0  0  0  0  0  0  0  0  0  0
    3.3919    3.5831   -0.0132 O   0  0  0  0  0  0  0  0  0  0  0  0
  1  2  2  0      
  2  3  1  0      
  3  4  2  0      
  4  5  1  0      
  5  6  2  0      
  6  1  1  0      
  1  7  1  0      
  2  8  1  0      
  5  9  1  0      
  4 10  1  0      
 10 11  1  0      
  9 12  1  0      
M  END
$$$$
