
  corina  12101205493D 1   1.00000     0.00000 
CORINA 3.49 0024  01.06.2011
 24 26  0  0  0  0  0  0  0  0  1 V2000
   -0.0347    1.4004   -0.1629 C   0  0  0  0  0  0  0  0  0  0  0  0
   -0.0087    0.0004   -0.0850 C   0  0  0  0  0  0  0  0  0  0  0  0
    1.1566    2.1099   -0.1740 C   0  0  0  0  0  0  0  0  0  0  0  0
    1.2185   -0.6647   -0.0193 C   0  0  0  0  0  0  0  0  0  0  0  0
    2.3623    1.4397   -0.1090 C   0  0  0  0  0  0  0  0  0  0  0  0
    2.3925    0.0570   -0.0315 C   0  0  0  0  0  0  0  0  0  0  0  0
   -1.2195    2.0570   -0.2327 O   0  0  0  0  0  0  0  0  0  0  0  0
   -1.2683   -0.7649   -0.0719 C   0  0  0  0  0  0  0  0  0  0  0  0
   -2.3335   -0.1828   -0.1288 O   0  0  0  0  0  0  0  0  0  0  0  0
   -1.2386   -2.1101    0.0030 O   0  0  0  0  0  0  0  0  0  0  0  0
   -2.4333   -2.7482    0.1170 C   0  0  0  0  0  0  0  0  0  0  0  0
   -4.3729   -3.7240   -0.9018 C   0  0  0  0  0  0  0  0  0  0  0  0
   -4.8654   -4.0473    0.3493 C   0  0  0  0  0  0  0  0  0  0  0  0
   -3.1586   -3.0752   -1.0209 C   0  0  0  0  0  0  0  0  0  0  0  0
   -4.1423   -3.7277    1.4833 C   0  0  0  0  0  0  0  0  0  0  0  0
   -2.9275   -3.0790    1.3700 C   0  0  0  0  0  0  0  0  0  0  0  0
   -2.4856   -2.6327   -2.7318 Br  0  0  0  0  0  0  0  0  0  0  0  0
   -1.1674    3.4830   -0.3098 C   0  0  0  0  0  0  0  0  0  0  0  0
   -2.5683    4.0338   -0.3800 C   0  0  0  0  0  0  0  0  0  0  0  0
   -5.1384    5.0447   -0.5087 C   0  0  0  0  0  0  0  0  0  0  0  0
   -4.5299    4.8575    0.7184 C   0  0  0  0  0  0  0  0  0  0  0  0
   -4.4599    4.7312   -1.6716 C   0  0  0  0  0  0  0  0  0  0  0  0
   -3.2448    4.3523    0.7827 C   0  0  0  0  0  0  0  0  0  0  0  0
   -3.1749    4.2259   -1.6072 C   0  0  0  0  0  0  0  0  0  0  0  0
  2  1  1  0  0  0  0
  3  1  2  0  0  0  0
  4  2  2  0  0  0  0
  5  3  1  0  0  0  0
  6  4  1  0  0  0  0
  6  5  2  0  0  0  0
  1  7  1  0  0  0  0
  2  8  1  0  0  0  0
  8  9  2  0  0  0  0
  8 10  1  0  0  0  0
 10 11  1  0  0  0  0
 13 12  1  0  0  0  0
 14 12  2  0  0  0  0
 15 13  2  0  0  0  0
 11 14  1  0  0  0  0
 16 15  1  0  0  0  0
 16 11  2  0  0  0  0
 14 17  1  0  0  0  0
  7 18  1  0  0  0  0
 18 19  1  0  0  0  0
 21 20  1  0  0  0  0
 22 20  2  0  0  0  0
 23 21  2  0  0  0  0
 24 22  1  0  0  0  0
 19 23  1  0  0  0  0
 19 24  2  0  0  0  0
M  END
$$$$
