
  corina  02131209473D 1   1.00000     0.00000 
CORINA 3.49 0024  01.06.2011
 31 35  0  0  0  0  0  0  0  0999 V2000
    0.0207    1.2590   -0.5842 N   0  0  3  0  0  0  0  0  0  0  0  0
    1.2691    1.7938   -0.4864 C   0  0  0  0  0  0  0  0  0  0  0  0
    2.0858    0.8822    0.1217 C   0  0  0  0  0  0  0  0  0  0  0  0
    1.2608   -0.3000    0.4145 C   0  0  0  0  0  0  0  0  0  0  0  0
    0.0172   -0.0257   -0.0310 N   0  0  3  0  0  0  0  0  0  0  0  0
   -1.0871   -0.8801    0.0470 C   0  0  0  0  0  0  0  0  0  0  0  0
   -1.1418    1.9287   -1.1727 C   0  0  0  0  0  0  0  0  0  0  0  0
    1.6289   -1.3270    0.9540 O   0  0  0  0  0  0  0  0  0  0  0  0
    1.6811    3.1609   -0.9685 C   0  0  0  0  0  0  0  0  0  0  0  0
    3.4121    1.0384    0.4028 N   0  0  0  0  0  0  0  0  0  0  0  0
   -0.9696   -2.2069   -0.3466 C   0  0  0  0  0  0  0  0  0  0  0  0
   -2.0606   -3.0496   -0.2630 C   0  0  0  0  0  0  0  0  0  0  0  0
   -3.2691   -2.5735    0.2115 C   0  0  0  0  0  0  0  0  0  0  0  0
   -3.3896   -1.2529    0.6037 C   0  0  0  0  0  0  0  0  0  0  0  0
   -2.3022   -0.4053    0.5235 C   0  0  0  0  0  0  0  0  0  0  0  0
    6.3991   -3.0930    2.5718 C   0  0  0  0  0  0  0  0  0  0  0  0
    7.7526   -2.9281    2.8590 C   0  0  0  0  0  0  0  0  0  0  0  0
    8.3880   -1.7463    2.6452 C   0  0  0  0  0  0  0  0  0  0  0  0
    5.6488   -2.0783    2.0636 C   0  0  0  0  0  0  0  0  0  0  0  0
    6.2443   -0.8297    1.8187 C   0  0  0  0  0  0  0  0  0  0  0  0
    7.6665   -0.6534    2.1194 C   0  0  0  0  0  0  0  0  0  0  0  0
    8.2889    0.5742    1.8879 C   0  0  0  0  0  0  0  0  0  0  0  0
    5.4943    0.2442    1.2929 C   0  0  0  0  0  0  0  0  0  0  0  0
    6.1322    1.4821    1.0630 C   0  0  0  0  0  0  0  0  0  0  0  0
    7.5556    1.6415    1.3673 C   0  0  0  0  0  0  0  0  0  0  0  0
    8.1638    2.8918    1.1257 C   0  0  0  0  0  0  0  0  0  0  0  0
    7.4221    3.9110    0.6187 C   0  0  0  0  0  0  0  0  0  0  0  0
    6.0680    3.7559    0.3287 C   0  0  0  0  0  0  0  0  0  0  0  0
    5.4231    2.5771    0.5414 C   0  0  0  0  0  0  0  0  0  0  0  0
    4.0731    0.0768    0.9916 C   0  0  0  0  0  0  0  0  0  0  0  0
    3.5696   -0.8415    1.2556 H   0  0  0  0  0  0  0  0  0  0  0  0
 15  6  1  0  0  0  0
  3  4  1  0  0  0  0
  4  8  2  0  0  0  0
 16 17  2  0  0  0  0
  4  5  1  0  0  0  0
 17 18  1  0  0  0  0
 18 21  2  0  0  0  0
  2  9  1  0  0  0  0
 20 19  2  0  0  0  0
 19 16  1  0  0  0  0
  5  1  1  0  0  0  0
 10  3  1  0  0  0  0
 20 21  1  0  0  0  0
  2  3  2  0  0  0  0
 21 22  1  0  0  0  0
 22 25  2  0  0  0  0
  6 11  2  0  0  0  0
 24 23  2  0  0  0  0
 23 20  1  0  0  0  0
  1  2  1  0  0  0  0
 11 12  1  0  0  0  0
 24 25  1  0  0  0  0
  5  6  1  0  0  0  0
 25 26  1  0  0  0  0
 12 13  2  0  0  0  0
 26 27  2  0  0  0  0
 27 28  1  0  0  0  0
 13 14  1  0  0  0  0
 28 29  2  0  0  0  0
 29 24  1  0  0  0  0
 23 30  1  0  0  0  0
  1  7  1  0  0  0  0
 30 10  2  0  0  0  0
 14 15  2  0  0  0  0
 30 31  1  0  0  0  0
M  END
$$$$
