Untitled ACS Document 1996-1
  corina  03051604063D 1   1.00000     0.00000 
CORINA 3.60 0026  08.12.2014
 17 17  0  0  0  0  0  0  0  0999 V2000
   -0.0167    1.3825    0.0096 C   0  0  0  0  0  0  0  0  0  0  0  0
    0.0021   -0.0041    0.0020 C   0  0  0  0  0  0  0  0  0  0  0  0
    1.1990   -0.6852   -0.0130 C   0  0  0  0  0  0  0  0  0  0  0  0
    2.3997    0.0258   -0.0207 C   0  0  0  0  0  0  0  0  0  0  0  0
    2.3764    1.4290   -0.0129 C   0  0  0  0  0  0  0  0  0  0  0  0
    1.1625    2.0983    0.0022 C   0  0  0  0  0  0  0  0  0  0  0  0
    3.7104   -0.3392   -0.0356 N   0  3  0  0  0  0  0  0  0  0  0  0
    4.4436    0.7331   -0.0370 C   0  0  0  0  0  0  0  0  0  0  0  0
    3.6673    1.8281   -0.0235 O   0  0  0  0  0  0  0  0  0  0  0  0
    5.9505    0.7460   -0.0511 C   0  0  0  0  0  0  0  0  0  0  0  0
    4.2123   -1.7155   -0.0474 C   0  0  0  0  0  0  0  0  0  0  0  0
   12.2373    9.4276    6.3050 C   0  0  0  0  0  0  0  0  0  0  0  0
   12.2619    7.6138    6.2950 S   0  0  0  0  0  0  0  0  0  0  0  0
   13.1046    7.1209    7.3276 O   0  0  0  0  0  0  0  0  0  0  0  0
   10.9505    7.0983    6.1110 O   0  0  0  0  0  0  0  0  0  0  0  0
   12.9917    7.2509    5.0096 O   0  0  0  0  0  0  0  0  0  0  0  0
   14.4449    7.4576    5.0689 O   0  5  0  0  0  0  0  0  0  0  0  0
  1  2  2  0      
  2  3  1  0      
  3  4  2  0      
  4  5  1  0      
  5  6  2  0      
  6  1  1  0      
  4  7  1  0      
  7  8  2  0      
  8  9  1  0      
  9  5  1  0      
  8 10  1  0      
  7 11  1  0      
 12 13  1  0      
 13 14  2  0      
 13 15  2  0      
 13 16  1  0      
 16 17  1  0      
M  CHG  2   7   1  17  -1
M  STY  1   1 SUP
M  SLB  1   1   1
M  SAL   1  6  12  13  14  15  16  17
M  SMT   1 CH3SO4
M  END
$$$$
