n.mol
  corina  12021017533D 1   1.00000     0.00000 
CORINA 3.46 0026  05.08.2008
 19 20  0  0  0  0  0  0  0  0999 V2000
   -0.2862    1.6090   -0.3074 C   0  0  0  0  0  0  0  0  0  0  0  0
   -0.1677    0.0861   -0.2211 C   0  0  0  0  0  0  0  0  0  0  0  0
    0.5353   -0.4426   -1.4730 C   0  0  0  0  0  0  0  0  0  0  0  0
    0.6460   -1.8650   -1.3923 O   0  0  0  0  0  0  0  0  0  0  0  0
    1.2915   -2.4625   -2.5185 C   0  0  0  0  0  0  0  0  0  0  0  0
    1.3540   -3.9790   -2.3252 C   0  0  0  0  0  0  0  0  0  0  0  0
    2.1775   -4.7413   -3.7619 P   0  0  0  0  0  0  0  0  0  0  0  0
    2.5367   -6.4104   -3.1489 C   0  0  0  0  0  0  0  0  0  0  0  0
    3.1811   -7.3334   -3.9704 C   0  0  0  0  0  0  0  0  0  0  0  0
    3.4524   -8.6015   -3.4989 C   0  0  0  0  0  0  0  0  0  0  0  0
    3.0854   -8.9575   -2.2133 C   0  0  0  0  0  0  0  0  0  0  0  0
    2.4449   -8.0452   -1.3936 C   0  0  0  0  0  0  0  0  0  0  0  0
    2.1744   -6.7724   -1.8528 C   0  0  0  0  0  0  0  0  0  0  0  0
    0.7817   -5.0427   -4.8806 C   0  0  0  0  0  0  0  0  0  0  0  0
    0.1723   -6.2954   -4.9167 C   0  0  0  0  0  0  0  0  0  0  0  0
   -0.8894   -6.5191   -5.7693 C   0  0  0  0  0  0  0  0  0  0  0  0
   -1.3488   -5.5024   -6.5876 C   0  0  0  0  0  0  0  0  0  0  0  0
   -0.7472   -4.2569   -6.5561 C   0  0  0  0  0  0  0  0  0  0  0  0
    0.3112   -4.0205   -5.7028 C   0  0  0  0  0  0  0  0  0  0  0  0
  2  1  1  0      
  3  2  1  0      
  4  3  1  0      
  5  4  1  0      
  6  5  1  0      
  6  7  1  0      
  7  8  1  0      
  7 14  1  0      
  8  9  2  0      
  9 10  1  0      
 10 11  2  0      
 11 12  1  0      
 12 13  2  0      
  8 13  1  0      
 14 15  2  0      
 15 16  1  0      
 16 17  2  0      
 17 18  1  0      
 18 19  2  0      
 14 19  1  0      
M  STY  1   1 SUP
M  SLB  1   1   1
M  SAL   1 13   7   8   9  10  11  12  13  14  15  16  17  18  19
M  SBL   1  1   6
M  SMT   1 PPh2
M  SBV   1  6   -6.4319    5.0325
M  END
$$$$
