Untitled angew-5
  corina  03301609013D 1   1.00000     0.00000 
CORINA 3.60 0026  08.12.2014
 56 58  0  0  0  0  0  0  0  0999 V2000
   -0.0167    1.3781    0.0096 C   0  0  0  0  0  0  0  0  0  0  0  0
    0.0021   -0.0041    0.0020 C   0  0  0  0  0  0  0  0  0  0  0  0
    1.2084   -0.6789   -0.0132 C   0  0  0  0  0  0  0  0  0  0  0  0
    2.3961    0.0285   -0.0212 C   0  0  0  0  0  0  0  0  0  0  0  0
    2.3773    1.4107   -0.0145 C   0  0  0  0  0  0  0  0  0  0  0  0
    1.1709    2.0855    0.0021 C   0  0  0  0  0  0  0  0  0  0  0  0
    1.1505    3.5924    0.0089 C   0  0  0  0  0  0  0  0  0  0  0  0
    1.1282    4.0867   -1.3700 N   0  0  0  0  0  0  0  0  0  0  0  0
    1.2289   -2.1857   -0.0205 C   0  0  0  0  0  0  0  0  0  0  0  0
    1.2218   -2.6675   -1.4040 N   0  0  0  0  0  0  0  0  0  0  0  0
    1.1074    5.4127   -1.6103 C   0  0  0  0  0  0  0  0  0  0  0  0
    1.1072    6.1967   -0.6850 O   0  0  0  0  0  0  0  0  0  0  0  0
    1.0845    5.9211   -3.0288 C   0  0  0  0  0  0  0  0  0  0  0  0
   -0.1658    5.3973   -3.7382 C   0  0  0  0  0  0  0  0  0  0  0  0
    1.0646    7.3860   -3.0222 N   0  0  0  0  0  0  0  0  0  0  0  0
    1.5367    8.0711   -4.0825 C   0  0  0  0  0  0  0  0  0  0  0  0
    1.5162    9.5780   -4.0757 C   0  0  0  0  0  0  0  0  0  0  0  0
    1.9779    7.4750   -5.0421 O   0  0  0  0  0  0  0  0  0  0  0  0
    2.0791   10.0796   -5.3318 N   0  0  0  0  0  0  0  0  0  0  0  0
    2.1626   11.4070   -5.5502 C   0  0  0  0  0  0  0  0  0  0  0  0
    2.7416   11.9230   -6.8423 C   0  0  0  0  0  0  0  0  0  0  0  0
    1.7719   12.1861   -4.7068 O   0  0  0  0  0  0  0  0  0  0  0  0
    2.3039   13.3047   -7.0561 N   0  0  0  0  0  0  0  0  0  0  0  0
    4.2692   11.8773   -6.7709 C   0  0  0  0  0  0  0  0  0  0  0  0
    2.6164   14.2576   -6.1557 C   0  0  0  0  0  0  0  0  0  0  0  0
    2.1662   15.6788   -6.3757 C   0  0  0  0  0  0  0  0  0  0  0  0
    3.2600   13.9713   -5.1685 O   0  0  0  0  0  0  0  0  0  0  0  0
    1.2373   -3.9913   -1.6566 C   0  0  0  0  0  0  0  0  0  0  0  0
    1.2299   -4.4869   -3.0798 C   0  0  0  0  0  0  0  0  0  0  0  0
    1.2498   -5.9517   -3.0869 N   0  0  0  0  0  0  0  0  0  0  0  0
    1.7416   -6.6139   -4.1528 C   0  0  0  0  0  0  0  0  0  0  0  0
    1.7621   -8.1207   -4.1601 C   0  0  0  0  0  0  0  0  0  0  0  0
    2.3399   -8.5952   -5.4199 N   0  0  0  0  0  0  0  0  0  0  0  0
    2.4597   -9.9176   -5.6506 C   0  0  0  0  0  0  0  0  0  0  0  0
    3.0541  -10.4057   -6.9465 C   0  0  0  0  0  0  0  0  0  0  0  0
    1.2572   -4.7837   -0.7387 O   0  0  0  0  0  0  0  0  0  0  0  0
   -0.0332   -3.9906   -3.7862 C   0  0  0  0  0  0  0  0  0  0  0  0
    2.1677   -5.9970   -5.1061 O   0  0  0  0  0  0  0  0  0  0  0  0
    2.0892  -10.7149   -4.8151 O   0  0  0  0  0  0  0  0  0  0  0  0
    3.5144  -11.7868   -6.7831 N   0  0  0  0  0  0  0  0  0  0  0  0
    1.9933  -10.3486   -8.0476 C   0  0  0  0  0  0  0  0  0  0  0  0
    2.6389  -12.7531   -6.4422 C   0  0  0  0  0  0  0  0  0  0  0  0
    3.1125  -14.1739   -6.2741 C   0  0  0  0  0  0  0  0  0  0  0  0
    1.4699  -12.4792   -6.2706 O   0  0  0  0  0  0  0  0  0  0  0  0
    4.8466   12.2765   -8.1044 C   0  0  0  0  0  0  0  0  0  0  0  0
    5.1293   13.6042   -8.3656 C   0  0  0  0  0  0  0  0  0  0  0  0
    5.6589   13.9704   -9.5888 C   0  0  0  0  0  0  0  0  0  0  0  0
    5.9062   13.0089  -10.5507 C   0  0  0  0  0  0  0  0  0  0  0  0
    5.6243   11.6811  -10.2892 C   0  0  0  0  0  0  0  0  0  0  0  0
    5.0988   11.3143   -9.0644 C   0  0  0  0  0  0  0  0  0  0  0  0
    2.6189  -10.7191   -9.3676 C   0  0  0  0  0  0  0  0  0  0  0  0
    2.6396  -12.0395   -9.7762 C   0  0  0  0  0  0  0  0  0  0  0  0
    3.2135  -12.3794  -10.9870 C   0  0  0  0  0  0  0  0  0  0  0  0
    3.7662  -11.3988  -11.7894 C   0  0  0  0  0  0  0  0  0  0  0  0
    3.7447  -10.0783  -11.3812 C   0  0  0  0  0  0  0  0  0  0  0  0
    3.1669   -9.7379  -10.1724 C   0  0  0  0  0  0  0  0  0  0  0  0
 24 45  1  0      
 45 46  2  0      
 46 47  1  0      
 47 48  2  0      
 48 49  1  0      
 49 50  2  0      
 45 50  1  0      
 41 51  1  0      
 51 52  2  0      
 52 53  1  0      
 53 54  2  0      
 54 55  1  0      
 55 56  2  0      
 51 56  1  0      
  1  2  2  0      
  2  3  1  0      
  3  4  2  0      
  4  5  1  0      
  5  6  2  0      
  6  1  1  0      
  6  7  1  0      
  7  8  1  0      
  3  9  1  0      
  9 10  1  0      
  8 11  1  0      
 11 12  2  0      
 11 13  1  0      
 13 14  1  0      
 13 15  1  0      
 15 16  1  0      
 16 17  1  0      
 16 18  2  0      
 17 19  1  0      
 19 20  1  0      
 20 21  1  0      
 20 22  2  0      
 21 23  1  0      
 21 24  1  0      
 23 25  1  0      
 25 26  1  0      
 25 27  2  0      
 10 28  1  0      
 28 29  1  0      
 29 30  1  0      
 30 31  1  0      
 31 32  1  0      
 32 33  1  0      
 33 34  1  0      
 34 35  1  0      
 28 36  2  0      
 29 37  1  0      
 31 38  2  0      
 34 39  2  0      
 35 40  1  0      
 35 41  1  0      
 40 42  1  0      
 42 43  1  0      
 42 44  2  0      
M  STY  1   1 SUP
M  SLB  1   1   1
M  SAL   1  6  45  46  47  48  49  50
M  SBL   1  1   1
M  SMT   1 ^Ph
M  SBV   1   1    1.3249   -0.7613
M  STY  1   2 SUP
M  SLB  1   2   2
M  SAL   2  6  51  52  53  54  55  56
M  SBL   2  1   8
M  SMT   2 Ph
M  SBV   2   8   -1.3249    0.7613
M  END
$$$$
