m551-1.cdx
  corina  12080917093D 1   1.00000     0.00000 
CORINA 3.46 0026  05.08.2008
 13 14  0  0  0  0  0  0  0  0999 V2000
   -0.0163    1.3489    0.0095 C   0  0  0  0  0  0  0  0  0  0  0  0
    0.0021   -0.0041    0.0020 C   0  0  0  0  0  0  0  0  0  0  0  0
    1.3436   -0.4176   -0.0130 C   0  0  0  0  0  0  0  0  0  0  0  0
    2.1029    0.6515   -0.0145 N   0  0  0  0  0  0  0  0  0  0  0  0
    1.2722    1.7794   -0.0005 N   0  0  0  0  0  0  0  0  0  0  0  0
    3.0510    3.4154   -0.0091 C   0  0  0  0  0  0  0  0  0  0  0  0
    3.4650    4.7331   -0.0059 C   0  0  0  0  0  0  0  0  0  0  0  0
    2.5310    5.7527    0.0089 C   0  0  0  0  0  0  0  0  0  0  0  0
    1.1803    5.4568    0.0206 C   0  0  0  0  0  0  0  0  0  0  0  0
    0.7600    4.1412    0.0166 C   0  0  0  0  0  0  0  0  0  0  0  0
    1.6954    3.1151    0.0022 C   0  0  0  0  0  0  0  0  0  0  0  0
    1.7805   -1.7052   -0.0234 O   0  0  0  0  0  0  0  0  0  0  0  0
   -1.5116   -1.1375    0.0109 Br  0  0  0  0  0  0  0  0  0  0  0  0
  1  2  2  0      
  1  5  1  0      
  2  3  1  0      
  2 13  1  0      
  3  4  2  0      
  3 12  1  0      
  4  5  1  0      
  5 11  1  0      
  6  7  2  0      
  6 11  1  0      
  7  8  1  0      
  8  9  2  0      
  9 10  1  0      
 10 11  2  0      
M  END
$$$$
