
  corina  12080917083D 1   1.00000     0.00000 
CORINA 3.46 0026  05.08.2008
 27 28  0  0  0  0  0  0  0  0999 V2000
   -0.3155    2.2250   -0.0783 C   0  0  1  0  0  0  0  0  0  0  0  0
    0.9563    3.0608   -0.0604 C   0  0  3  0  0  0  0  0  0  0  0  0
    1.8006    2.6896    1.1568 C   0  0  0  0  0  0  0  0  0  0  0  0
    1.0265    3.1358    2.4022 C   0  0  0  0  0  0  0  0  0  0  0  0
   -0.3238    2.4317    2.4834 C   0  0  1  0  0  0  0  0  0  0  0  0
   -1.1229    2.5274    1.1913 C   0  0  2  0  0  0  0  0  0  0  0  0
   -0.3611    2.4771   -2.5749 C   0  0  0  0  0  0  0  0  0  0  0  0
    0.8550    3.3970   -2.5437 C   0  0  0  0  0  0  0  0  0  0  0  0
    1.7555    3.0709   -1.3468 C   0  0  2  0  0  0  0  0  0  0  0  0
   -1.1680    2.6436   -1.2884 C   0  0  0  0  0  0  0  0  0  0  0  0
    2.5194    1.7753   -1.5954 C   0  0  0  0  0  0  0  0  0  0  0  0
    2.7970    4.2126   -1.2646 C   0  0  0  0  0  0  0  0  0  0  0  0
   -0.0558    0.7255   -0.1754 C   0  0  0  0  0  0  0  0  0  0  0  0
   -2.3043    1.5491    1.2731 C   0  0  0  0  0  0  0  0  0  0  0  0
   -0.1493    0.9872    2.9480 C   0  0  0  0  0  0  0  0  0  0  0  0
   -1.1038    3.1216    3.5237 O   0  0  0  0  0  0  0  0  0  0  0  0
   -0.5765    3.1573    4.7576 C   0  0  0  0  0  0  0  0  0  0  0  0
   -1.1709    3.7097    5.6528 O   0  0  0  0  0  0  0  0  0  0  0  0
    0.3790    2.6923    4.9501 H   0  0  0  0  0  0  0  0  0  0  0  0
   -3.2574    1.9924    2.3849 C   0  0  0  0  0  0  0  0  0  0  0  0
   -4.4165    1.0327    2.4651 C   0  0  0  0  0  0  0  0  0  0  0  0
   -5.6113    1.2171    1.5654 C   0  0  0  0  0  0  0  0  0  0  0  0
   -4.3850    0.0222    3.3306 C   0  0  0  0  0  0  0  0  0  0  0  0
   -5.4231   -1.0169    3.2850 C   0  0  0  0  0  0  0  0  0  0  0  0
   -5.4293   -2.0041    4.2029 O   0  0  0  0  0  0  0  0  0  0  0  0
   -6.2760   -0.9863    2.4197 O   0  0  0  0  0  0  0  0  0  0  0  0
   -6.4842   -2.9962    4.0967 C   0  0  0  0  0  0  0  0  0  0  0  0
  5  6  1  0  0  0  0
  1 13  1  0  0  0  0
  7  8  1  0  0  0  0
  6 14  1  0  0  0  0
  5 15  1  0  0  0  0
  1  2  1  0  0  0  0
  5 16  1  0  0  0  0
  1  6  1  0  0  0  0
 16 17  1  0  0  0  0
  2  3  1  0  0  0  0
 17 18  2  0  0  0  0
  7 10  1  0  0  0  0
 17 19  1  0  0  0  0
  8  9  1  0  0  0  0
 14 20  1  0  0  0  0
  9  2  1  0  0  0  0
 20 21  1  0  0  0  0
  1 10  1  0  0  0  0
 21 22  1  0  0  0  0
  3  4  1  0  0  0  0
 21 23  2  0  0  0  0
  9 11  1  0  0  0  0
 23 24  1  0  0  0  0
  4  5  1  0  0  0  0
 24 25  1  0  0  0  0
  9 12  1  0  0  0  0
 24 26  2  0  0  0  0
 25 27  1  0  0  0  0
M  END
$$$$
