m541.cdx
  corina  12080917093D 1   1.00000     0.00000 
CORINA 3.46 0026  05.08.2008
 16 18  0  0  0  0  0  0  0  0999 V2000
   -0.0167    1.3767    0.0096 C   0  0  0  0  0  0  0  0  0  0  0  0
    0.0021   -0.0041    0.0020 C   0  0  0  0  0  0  0  0  0  0  0  0
    1.2081   -0.6808   -0.0131 C   0  0  0  0  0  0  0  0  0  0  0  0
    2.3990    0.0222   -0.0207 C   0  0  0  0  0  0  0  0  0  0  0  0
    2.3877    1.4030   -0.0132 C   0  0  0  0  0  0  0  0  0  0  0  0
    1.1779    2.0861    0.0020 C   0  0  0  0  0  0  0  0  0  0  0  0
    1.1627    3.4842    0.0097 N   0  0  0  0  0  0  0  0  0  0  0  0
   -0.0273    4.1978    0.0249 C   0  0  0  0  0  0  0  0  0  0  0  0
   -0.0445    5.5390   -0.2032 N   0  0  0  0  0  0  0  0  0  0  0  0
    1.1538    6.3188   -0.4876 C   0  0  0  0  0  0  0  0  0  0  0  0
    2.3756    5.4852   -0.2102 C   0  0  0  0  0  0  0  0  0  0  0  0
    2.3525    4.2335    0.0083 N   0  0  0  0  0  0  0  0  0  0  0  0
    3.7124    6.1803   -0.1841 C   0  0  0  0  0  0  0  0  0  0  0  0
   -1.2562    3.8249    0.2322 N   0  0  0  0  0  0  0  0  0  0  0  0
   -2.0494    4.8390    0.1569 N   0  0  0  0  0  0  0  0  0  0  0  0
   -1.3811    5.9165   -0.1041 N   0  0  0  0  0  0  0  0  0  0  0  0
  1  2  2  0      
  2  3  1  0      
  3  4  2  0      
  4  5  1  0      
  5  6  2  0      
  6  1  1  0      
  6  7  1  0      
  7  8  1  0      
  8  9  1  0      
  9 10  1  0      
 10 11  1  0      
 11 12  2  0      
 12  7  1  0      
 11 13  1  0      
  8 14  2  0      
 14 15  1  0      
 15 16  2  0      
 16  9  1  0      
M  END
$$$$
