
  corina  12080917083D 1   1.00000     0.00000 
CORINA 3.46 0026  05.08.2008
 15 16  0  0  0  0  0  0  0  0999 V2000
   -0.0167    1.3832    0.0096 C   0  0  0  0  0  0  0  0  0  0  0  0
    1.1704    2.0891    0.0021 C   0  0  0  0  0  0  0  0  0  0  0  0
    2.3781    1.4136   -0.0131 C   0  0  0  0  0  0  0  0  0  0  0  0
    2.3989    0.0303   -0.0207 C   0  0  0  0  0  0  0  0  0  0  0  0
    1.2135   -0.6794   -0.0132 C   0  0  0  0  0  0  0  0  0  0  0  0
    0.0021   -0.0041    0.0020 C   0  0  0  0  0  0  0  0  0  0  0  0
   -1.1652   -0.7005    0.0090 O   0  0  0  0  0  0  0  0  0  0  0  0
    3.8689    2.3031   -0.0231 Cl  0  0  0  0  0  0  0  0  0  0  0  0
    1.2367   -2.1861   -0.0220 C   0  0  0  0  0  0  0  0  0  0  0  0
    0.9905   -2.6717   -1.3864 N   0  0  3  0  0  0  0  0  0  0  0  0
    1.2378   -4.1121   -1.4835 C   0  0  0  0  0  0  0  0  0  0  0  0
    0.5703   -4.6710   -2.7448 C   0  0  0  0  0  0  0  0  0  0  0  0
    1.3177   -3.8698   -4.1968 S   0  0  0  0  0  0  0  0  0  0  0  0
    1.1785   -2.1079   -3.7667 C   0  0  0  0  0  0  0  0  0  0  0  0
    1.7622   -1.9019   -2.3647 C   0  0  0  0  0  0  0  0  0  0  0  0
  3  4  2  0  0  0  0
  3  8  1  0  0  0  0
  5  9  1  0  0  0  0
  4  5  1  0  0  0  0
  9 10  1  0  0  0  0
 10 11  1  0  0  0  0
  2  3  1  0  0  0  0
  5  6  2  0  0  0  0
  6  1  1  0  0  0  0
  1  2  2  0  0  0  0
  6  7  1  0  0  0  0
 10 15  1  0  0  0  0
 11 12  1  0  0  0  0
 12 13  1  0  0  0  0
 13 14  1  0  0  0  0
 14 15  1  0  0  0  0
M  END
$$$$
