m488.mol
  corina  12080917093D 1   1.00000     0.00000 
CORINA 3.46 0026  05.08.2008
 32 35  0  0  0  0  0  0  0  0999 V2000
   -0.0169    1.3940    0.0097 C   0  0  0  0  0  0  0  0  0  0  0  0
    0.0021   -0.0041    0.0020 C   0  0  0  0  0  0  0  0  0  0  0  0
    1.2229   -0.6855   -0.0133 C   0  0  0  0  0  0  0  0  0  0  0  0
    2.4041    0.0203   -0.0208 C   0  0  0  0  0  0  0  0  0  0  0  0
    2.3839    1.4161   -0.0126 C   0  0  0  0  0  0  0  0  0  0  0  0
    1.1657    2.0976    0.0022 C   0  0  0  0  0  0  0  0  0  0  0  0
    3.6561    2.1747   -0.0197 C   0  0  0  0  0  0  0  0  0  0  0  0
    3.6359    3.5705   -0.0116 C   0  0  0  0  0  0  0  0  0  0  0  0
    4.8171    4.2764   -0.0181 C   0  0  0  0  0  0  0  0  0  0  0  0
    6.0380    3.5949   -0.0330 C   0  0  0  0  0  0  0  0  0  0  0  0
    6.0569    2.1969   -0.0412 C   0  0  0  0  0  0  0  0  0  0  0  0
    4.8744    1.4932   -0.0288 C   0  0  0  0  0  0  0  0  0  0  0  0
    7.2119    4.2949   -0.0400 N   0  0  0  0  0  0  0  0  0  0  0  0
    8.1876    3.9389    0.7473 C   0  0  0  0  0  0  0  0  0  0  0  0
   -1.1719   -0.7041    0.0099 N   0  0  0  0  0  0  0  0  0  0  0  0
   -1.3309   -1.7198   -0.7927 C   0  0  0  0  0  0  0  0  0  0  0  0
    9.4522    4.6929    0.7398 C   0  0  0  0  0  0  0  0  0  0  0  0
   -2.5939   -2.4729   -0.7842 C   0  0  0  0  0  0  0  0  0  0  0  0
   10.5012    4.3140    1.5829 C   0  0  0  0  0  0  0  0  0  0  0  0
   11.6827    5.0249    1.5698 C   0  0  0  0  0  0  0  0  0  0  0  0
   11.8316    6.1109    0.7249 C   0  0  0  0  0  0  0  0  0  0  0  0
   10.7979    6.4920   -0.1126 C   0  0  0  0  0  0  0  0  0  0  0  0
    9.6122    5.7879   -0.1147 C   0  0  0  0  0  0  0  0  0  0  0  0
   -2.7671   -3.5630   -1.6443 C   0  0  0  0  0  0  0  0  0  0  0  0
   -3.9516   -4.2648   -1.6325 C   0  0  0  0  0  0  0  0  0  0  0  0
   -4.9744   -3.8922   -0.7682 C   0  0  0  0  0  0  0  0  0  0  0  0
   -4.8076   -2.8099    0.0878 C   0  0  0  0  0  0  0  0  0  0  0  0
   -3.6246   -2.1054    0.0881 C   0  0  0  0  0  0  0  0  0  0  0  0
   13.1028    6.8688    0.7173 N   0  3  0  0  0  0  0  0  0  0  0  0
   -6.1404   -4.5874   -0.7604 O   0  0  0  0  0  0  0  0  0  0  0  0
   14.0145    6.5363    1.4534 O   0  5  0  0  0  0  0  0  0  0  0  0
   13.2373    7.8251   -0.0250 O   0  0  0  0  0  0  0  0  0  0  0  0
  1  2  2  0  0  0
  2  3  1  0  0  0
  3  4  2  0  0  0
  4  5  1  0  0  0
  5  6  2  0  0  0
  6  1  1  0  0  0
  5  7  1  0  0  0
  7  8  2  0  0  0
  8  9  1  0  0  0
  9 10  2  0  0  0
 10 11  1  0  0  0
 11 12  2  0  0  0
 12  7  1  0  0  0
 10 13  1  0  0  0
 13 14  2  0  0  0
  2 15  1  0  0  0
 15 16  2  0  0  0
 14 17  1  0  0  0
 16 18  1  0  0  0
 17 19  2  0  0  0
 19 20  1  0  0  0
 20 21  2  0  0  0
 21 22  1  0  0  0
 22 23  2  0  0  0
 23 17  1  0  0  0
 18 24  2  0  0  0
 24 25  1  0  0  0
 25 26  2  0  0  0
 26 27  1  0  0  0
 27 28  2  0  0  0
 28 18  1  0  0  0
 21 29  1  0  0  0
 26 30  1  0  0  0
 29 31  1  0  0  0
 29 32  2  0  0  0
M  END
$$$$
