Molecule
  corina  08221405323D 1   1.00000     0.00000     0
CORINA 3.49 0023  12.04.2013
 71 73  0  0  0  0  0  0  0  0999 V2000
   -0.0178    1.4608    0.0101 C   0  0  2  0  0  0  0  0  0  1
   -0.7339    1.9542    1.2689 C   0  0  0  0  0  0  0  0  0  2
   -2.2030    1.5297    1.2193 C   0  0  0  0  0  0  0  0  0  3
   -2.9192    2.0232    2.4781 C   0  0  0  0  0  0  0  0  0  4
   -4.3297    1.6156    2.4306 N   0  0  0  0  0  0  0  0  0  5
   -5.0505    2.0732    3.6260 C   0  0  0  0  0  0  0  0  0  6
   -6.5127    1.6309    3.5404 C   0  0  0  0  0  0  0  0  0  7
    0.0021   -0.0041    0.0020 N   0  0  0  0  0  0  0  0  0  8
    0.1201   -2.0165   -1.1727 O   0  0  0  0  0  0  0  0  0  9
    0.2295   -2.6671   -2.4662 C   0  0  0  0  0  0  0  0  0 10
    1.5299   -2.2346   -3.1463 C   0  0  0  0  0  0  0  0  0 11
    0.2345   -4.1851   -2.2747 C   0  0  0  0  0  0  0  0  0 12
   -0.9608   -2.2673   -3.3405 C   0  0  0  0  0  0  0  0  0 13
    0.1018   -0.6702   -1.1653 C   0  0  0  0  0  0  0  0  0 14
    0.1753   -0.0559   -2.2111 O   0  0  0  0  0  0  0  0  0 15
    1.3960    1.9824   -0.0006 C   0  0  0  0  0  0  0  0  0 16
    2.3249    1.2098   -0.0136 O   0  0  0  0  0  0  0  0  0 17
    1.6234    3.3053    0.0043 O   0  0  0  0  0  0  0  0  0 18
   -7.2315    2.0873    4.7326 N   0  0  0  0  0  0  0  0  0 19
  -11.6705    1.1052    9.2161 C   0  0  0  0  0  0  0  0  0 20
  -12.9429    1.4195    8.5203 C   0  0  0  0  0  0  0  0  0 21
  -12.6800    2.2211    7.4130 C   0  0  0  0  0  0  0  0  0 22
  -11.1896    2.4523    7.3629 C   0  0  0  0  0  0  0  0  0 23
  -10.6126    1.7105    8.5437 C   0  0  0  0  0  0  0  0  0 24
   -9.3210    1.5632    9.0034 C   0  0  0  0  0  0  0  0  0 25
   -9.0710    0.8114   10.1376 C   0  0  0  0  0  0  0  0  0 26
  -10.1157    0.2056   10.8125 C   0  0  0  0  0  0  0  0  0 27
  -11.4112    0.3515   10.3625 C   0  0  0  0  0  0  0  0  0 28
  -14.2600    1.0511    8.8013 C   0  0  0  0  0  0  0  0  0 29
  -15.2848    1.4815    7.9848 C   0  0  0  0  0  0  0  0  0 30
  -15.0135    2.2776    6.8864 C   0  0  0  0  0  0  0  0  0 31
  -13.7109    2.6472    6.6024 C   0  0  0  0  0  0  0  0  0 32
  -10.6138    1.8963    6.0590 C   0  0  0  0  0  0  0  0  0 33
   -9.2034    2.2301    5.9716 O   0  0  0  0  0  0  0  0  0 34
   -8.5428    1.8108    4.8759 C   0  0  0  0  0  0  0  0  0 35
   -9.1288    1.1830    4.0163 O   0  0  0  0  0  0  0  0  0 36
   -0.5450    1.8219   -0.8730 H   0  0  0  0  0  0  0  0  0 37
   -0.2601    1.5211    2.1498 H   0  0  0  0  0  0  0  0  0 38
   -0.6713    3.0412    1.3200 H   0  0  0  0  0  0  0  0  0 39
   -2.6769    1.9628    0.3384 H   0  0  0  0  0  0  0  0  0 40
   -2.2657    0.4427    1.1682 H   0  0  0  0  0  0  0  0  0 41
   -2.4454    1.5901    3.3591 H   0  0  0  0  0  0  0  0  0 42
   -2.8566    3.1102    2.5293 H   0  0  0  0  0  0  0  0  0 43
   -4.7748    1.9510    1.5895 H   0  0  0  0  0  0  0  0  0 44
   -4.5914    1.6405    4.5149 H   0  0  0  0  0  0  0  0  0 45
   -5.0027    3.1605    3.6851 H   0  0  0  0  0  0  0  0  0 46
   -6.9717    2.0637    2.6515 H   0  0  0  0  0  0  0  0  0 47
   -6.5605    0.5436    3.4813 H   0  0  0  0  0  0  0  0  0 48
   -0.0566   -0.4945    0.8368 H   0  0  0  0  0  0  0  0  0 49
    2.3779   -2.5195   -2.5234 H   0  0  0  0  0  0  0  0  0 50
    1.6120   -2.7231   -4.1173 H   0  0  0  0  0  0  0  0  0 51
    1.5264   -1.1532   -3.2828 H   0  0  0  0  0  0  0  0  0 52
   -0.6920   -4.4932   -1.7901 H   0  0  0  0  0  0  0  0  0 53
    0.3166   -4.6736   -3.2456 H   0  0  0  0  0  0  0  0  0 54
    1.0824   -4.4699   -1.6518 H   0  0  0  0  0  0  0  0  0 55
   -0.9643   -1.1859   -3.4769 H   0  0  0  0  0  0  0  0  0 56
   -0.8787   -2.7558   -4.3114 H   0  0  0  0  0  0  0  0  0 57
   -1.8873   -2.5755   -2.8559 H   0  0  0  0  0  0  0  0  0 58
    2.5468    3.5921   -0.0030 H   0  0  0  0  0  0  0  0  0 59
   -6.7637    2.5884    5.4188 H   0  0  0  0  0  0  0  0  0 60
  -10.9720    3.5172    7.4460 H   0  0  0  0  0  0  0  0  0 61
   -8.5039    2.0348    8.4776 H   0  0  0  0  0  0  0  0  0 62
   -8.0588    0.6970   10.4964 H   0  0  0  0  0  0  0  0  0 63
   -9.9164   -0.3808   11.6972 H   0  0  0  0  0  0  0  0  0 64
  -12.2239   -0.1231   10.8923 H   0  0  0  0  0  0  0  0  0 65
  -14.4761    0.4292    9.6574 H   0  0  0  0  0  0  0  0  0 66
  -16.3031    1.1957    8.2036 H   0  0  0  0  0  0  0  0  0 67
  -15.8197    2.6113    6.2500 H   0  0  0  0  0  0  0  0  0 68
  -13.5012    3.2687    5.7444 H   0  0  0  0  0  0  0  0  0 69
  -10.7324    0.8129    6.0422 H   0  0  0  0  0  0  0  0  0 70
  -11.1437    2.3330    5.2125 H   0  0  0  0  0  0  0  0  0 71
  1  8  1  0  0  0
  8 14  1  0  0  0
  9 10  1  0  0  0
 10 11  1  0  0  0
 10 12  1  0  0  0
 10 13  1  0  0  0
 14 15  2  0  0  0
  9 14  1  0  0  0
  1 16  1  0  0  0
 16 17  2  0  0  0
 16 18  1  0  0  0
  7 19  1  0  0  0
 19 35  1  0  0  0
 20 21  1  0  0  0
 21 22  2  0  0  0
 22 23  1  0  0  0
 23 24  1  0  0  0
 20 24  2  0  0  0
 24 25  1  0  0  0
 25 26  2  0  0  0
 26 27  1  0  0  0
 27 28  2  0  0  0
 20 28  1  0  0  0
 21 29  1  0  0  0
 29 30  2  0  0  0
 30 31  1  0  0  0
 31 32  2  0  0  0
 22 32  1  0  0  0
 23 33  1  0  0  0
 33 34  1  0  0  0
 34 35  1  0  0  0
 35 36  2  0  0  0
  3  4  1  0  0  0
  1  2  1  0  0  0
  5  6  1  0  0  0
  6  7  1  0  0  0
  2  3  1  0  0  0
  4  5  1  0  0  0
  1 37  1  0  0  0
  2 38  1  0  0  0
  2 39  1  0  0  0
  3 40  1  0  0  0
  3 41  1  0  0  0
  4 42  1  0  0  0
  4 43  1  0  0  0
  5 44  1  0  0  0
  6 45  1  0  0  0
  6 46  1  0  0  0
  7 47  1  0  0  0
  7 48  1  0  0  0
  8 49  1  0  0  0
 11 50  1  0  0  0
 11 51  1  0  0  0
 11 52  1  0  0  0
 12 53  1  0  0  0
 12 54  1  0  0  0
 12 55  1  0  0  0
 13 56  1  0  0  0
 13 57  1  0  0  0
 13 58  1  0  0  0
 18 59  1  0  0  0
 19 60  1  0  0  0
 23 61  1  0  0  0
 25 62  1  0  0  0
 26 63  1  0  0  0
 27 64  1  0  0  0
 28 65  1  0  0  0
 29 66  1  0  0  0
 30 67  1  0  0  0
 31 68  1  0  0  0
 32 69  1  0  0  0
 33 70  1  0  0  0
 33 71  1  0  0  0
M  END
$$$$
