Molecule
  DSViewer          3D                             0

 71 73  0  0  0  0  0  0  0  0999 V2000
   -4.6169   -3.1308   -0.5827 C   0  0  2  0  0  0  0  0  0  1
   -4.3198   -2.1742    0.6123 C   0  0  0  0  0  0  0  0  0  2
   -2.8122   -1.7411    0.9271 C   0  0  0  0  0  0  0  0  0  3
   -2.0084   -1.0736   -0.2916 C   0  0  0  0  0  0  0  0  0  4
   -1.5691   -2.0857   -1.3672 N   0  0  0  0  0  0  0  0  0  5
   -0.4286   -2.9146   -0.8075 C   0  0  0  0  0  0  0  0  0  6
    0.9608   -2.2430   -1.1315 C   0  0  0  0  0  0  0  0  0  7
   -6.0847   -3.2270   -0.7364 N   0  0  0  0  0  0  0  0  0  8
   -7.2864   -5.1364    0.9484 O   0  0  0  0  0  0  0  0  0  9
   -6.3348   -6.0341    1.6344 C   0  0  0  0  0  0  0  0  0 10
   -5.7082   -7.0199    0.6337 C   0  0  0  0  0  0  0  0  0 11
   -5.2940   -5.2858    2.4688 C   0  0  0  0  0  0  0  0  0 12
   -7.1437   -6.8842    2.6112 C   0  0  0  0  0  0  0  0  0 13
   -7.1688   -4.0206   -0.0522 C   0  0  0  0  0  0  0  0  0 14
   -8.2848   -3.6724   -0.4522 O   0  0  0  0  0  0  0  0  0 15
   -3.9227   -4.4314   -0.6096 C   0  0  0  0  0  0  0  0  0 16
   -3.0939   -4.7357    0.2541 O   0  0  0  0  0  0  0  0  0 17
   -4.1631   -5.2869   -1.6775 O   0  0  0  0  0  0  0  0  0 18
    1.0483   -0.8483   -0.8150 N   0  0  0  0  0  0  0  0  0 19
    4.0641    5.2287    0.2333 C   0  0  0  0  0  0  0  0  0 20
    2.6293    5.2101    0.2858 C   0  0  0  0  0  0  0  0  0 21
    2.1937    4.0437   -0.1421 C   0  0  0  0  0  0  0  0  0 22
    3.3524    3.1652   -0.5711 C   0  0  0  0  0  0  0  0  0 23
    4.5023    4.0756   -0.2279 C   0  0  0  0  0  0  0  0  0 24
    5.9116    3.8083   -0.3806 C   0  0  0  0  0  0  0  0  0 25
    6.7748    4.7715   -0.0414 C   0  0  0  0  0  0  0  0  0 26
    6.2725    6.0824    0.4806 C   0  0  0  0  0  0  0  0  0 27
    4.9587    6.2931    0.6114 C   0  0  0  0  0  0  0  0  0 28
    1.7308    6.2509    0.7252 C   0  0  0  0  0  0  0  0  0 29
    0.4173    6.0057    0.6855 C   0  0  0  0  0  0  0  0  0 30
   -0.0852    4.6821    0.1997 C   0  0  0  0  0  0  0  0  0 31
    0.7773    3.7417   -0.1973 C   0  0  0  0  0  0  0  0  0 32
    3.4019    1.7403    0.0113 C   0  0  0  0  0  0  0  0  0 33
    2.2185    1.1152   -0.4316 O   0  0  0  0  0  0  0  0  0 34
    2.1634   -0.2566   -0.2646 C   0  0  0  0  0  0  0  0  0 35
    3.1352   -0.9077    0.1345 O   0  0  0  0  0  0  0  0  0 36
   -4.2924   -2.6079   -1.4905 H   0  0  0  0  0  0  0  0  0 37
   -4.8723   -1.2492    0.3990 H   0  0  0  0  0  0  0  0  0 38
   -4.7240   -2.6231    1.5251 H   0  0  0  0  0  0  0  0  0 39
   -2.2382   -2.5988    1.2988 H   0  0  0  0  0  0  0  0  0 40
   -2.8918   -0.9983    1.7330 H   0  0  0  0  0  0  0  0  0 41
   -2.6490   -0.2929   -0.7205 H   0  0  0  0  0  0  0  0  0 42
   -1.0979   -0.6122    0.0989 H   0  0  0  0  0  0  0  0  0 43
   -2.3369   -2.6433   -1.6053 H   0  0  0  0  0  0  0  0  0 44
   -0.5726   -3.0507    0.2673 H   0  0  0  0  0  0  0  0  0 45
   -0.4012   -3.9007   -1.2906 H   0  0  0  0  0  0  0  0  0 46
    1.0722   -2.2964   -2.2215 H   0  0  0  0  0  0  0  0  0 47
    1.7821   -2.8077   -0.6645 H   0  0  0  0  0  0  0  0  0 48
   -6.4438   -2.5737   -1.3933 H   0  0  0  0  0  0  0  0  0 49
   -5.0629   -7.7246    1.1737 H   0  0  0  0  0  0  0  0  0 50
   -5.1333   -6.5058   -0.0945 H   0  0  0  0  0  0  0  0  0 51
   -6.5111   -7.5740    0.1268 H   0  0  0  0  0  0  0  0  0 52
   -4.6606   -6.0170    2.9906 H   0  0  0  0  0  0  0  0  0 53
   -5.8046   -4.6521    3.2044 H   0  0  0  0  0  0  0  0  0 54
   -4.6809   -4.6758    1.8423 H   0  0  0  0  0  0  0  0  0 55
   -6.4697   -7.5840    3.1257 H   0  0  0  0  0  0  0  0  0 56
   -7.9067   -7.4486    2.0566 H   0  0  0  0  0  0  0  0  0 57
   -7.6298   -6.2314    3.3479 H   0  0  0  0  0  0  0  0  0 58
   -4.8332   -4.8739   -2.2822 H   0  0  0  0  0  0  0  0  0 59
    0.3392   -0.2504   -1.1338 H   0  0  0  0  0  0  0  0  0 60
    3.3115    3.0129   -1.6579 H   0  0  0  0  0  0  0  0  0 61
    6.2523    2.8761   -0.7540 H   0  0  0  0  0  0  0  0  0 62
    7.8170    4.6069   -0.1438 H   0  0  0  0  0  0  0  0  0 63
    6.9593    6.8448    0.7465 H   0  0  0  0  0  0  0  0  0 64
    4.5862    7.2151    0.9784 H   0  0  0  0  0  0  0  0  0 65
    2.1022    7.1839    1.0651 H   0  0  0  0  0  0  0  0  0 66
   -0.2703    6.7502    0.9976 H   0  0  0  0  0  0  0  0  0 67
   -1.1281    4.4906    0.1684 H   0  0  0  0  0  0  0  0  0 68
    0.4337    2.8004   -0.5471 H   0  0  0  0  0  0  0  0  0 69
    4.2827    1.2249   -0.3957 H   0  0  0  0  0  0  0  0  0 70
    3.4478    1.7508    1.1092 H   0  0  0  0  0  0  0  0  0 71
  1  8  1  0  0  0
  8 14  1  0  0  0
  9 10  1  0  0  0
 10 11  1  0  0  0
 10 12  1  0  0  0
 10 13  1  0  0  0
 14 15  2  0  0  0
  9 14  1  0  0  0
  1 16  1  0  0  0
 16 17  2  0  0  0
 16 18  1  0  0  0
  7 19  1  0  0  0
 19 35  1  0  0  0
 20 21  1  0  0  0
 21 22  2  0  0  0
 22 23  1  0  0  0
 23 24  1  0  0  0
 20 24  2  0  0  0
 24 25  1  0  0  0
 25 26  2  0  0  0
 26 27  1  0  0  0
 27 28  2  0  0  0
 20 28  1  0  0  0
 21 29  1  0  0  0
 29 30  2  0  0  0
 30 31  1  0  0  0
 31 32  2  0  0  0
 22 32  1  0  0  0
 23 33  1  0  0  0
 33 34  1  0  0  0
 34 35  1  0  0  0
 35 36  2  0  0  0
  3  4  1  0  0  0
  1  2  1  0  0  0
  5  6  1  0  0  0
  6  7  1  0  0  0
  2  3  1  0  0  0
  4  5  1  0  0  0
  1 37  1  0  0  0
  2 38  1  0  0  0
  2 39  1  0  0  0
  3 40  1  0  0  0
  3 41  1  0  0  0
  4 42  1  0  0  0
  4 43  1  0  0  0
  5 44  1  0  0  0
  6 45  1  0  0  0
  6 46  1  0  0  0
  7 47  1  0  0  0
  7 48  1  0  0  0
  8 49  1  0  0  0
 11 50  1  0  0  0
 11 51  1  0  0  0
 11 52  1  0  0  0
 12 53  1  0  0  0
 12 54  1  0  0  0
 12 55  1  0  0  0
 13 56  1  0  0  0
 13 57  1  0  0  0
 13 58  1  0  0  0
 18 59  1  0  0  0
 19 60  1  0  0  0
 23 61  1  0  0  0
 25 62  1  0  0  0
 26 63  1  0  0  0
 27 64  1  0  0  0
 28 65  1  0  0  0
 29 66  1  0  0  0
 30 67  1  0  0  0
 31 68  1  0  0  0
 32 69  1  0  0  0
 33 70  1  0  0  0
 33 71  1  0  0  0
M  END
$$$$
