
  corina  12080917093D 1   1.00000     0.00000 
CORINA 3.46 0026  05.08.2008
  6  6  0  0  0  0  0  0  0  0999 V2000
   -0.0163    1.3486    0.0095 C   0  0  0  0  0  0  0  0  0  0  0  0
    1.3129    1.7973   -0.0008 C   0  0  0  0  0  0  0  0  0  0  0  0
    2.0971    0.7467   -0.0140 N   0  0  0  0  0  0  0  0  0  0  0  0
    1.2922   -0.3997   -0.0124 N   0  0  0  0  0  0  0  0  0  0  0  0
    0.0021   -0.0041    0.0020 C   0  0  0  0  0  0  0  0  0  0  0  0
    1.7174    3.0956    0.0016 O   0  0  0  0  0  0  0  0  0  0  0  0
  2  3  2  0  0  0  0
  3  4  1  0  0  0  0
  4  5  1  0  0  0  0
  5  1  2  0  0  0  0
  1  2  1  0  0  0  0
  2  6  1  0  0  0  0
M  END
$$$$
