1111.mol
  corina  04071009333D 1   1.00000     0.00000 
CORINA 3.46 0026  05.08.2008
 83 92  0  0  1  0  0  0  0  0999 V2000
   -0.8371    1.7271    1.1675 O   0  0  0  0  0  0  0  0  0  0  0  0
   -0.4037    0.4691    0.6463 C   0  0  1  0  0  0  0  0  0  0  0  0
    0.6339    3.0034   -0.2635 C   0  0  1  0  0  0  0  0  0  0  0  0
    0.1745    2.7364    1.1723 C   0  0  3  0  0  0  0  0  0  0  0  0
    1.6859    3.9705   -0.2563 O   0  0  0  0  0  0  0  0  0  0  0  0
    2.2831    1.2370   -0.1495 O   0  0  0  0  0  0  0  0  0  0  0  0
    0.6979   -0.0127    1.4186 O   0  0  0  0  0  0  0  0  0  0  0  0
   -1.0822    1.0760   -1.5941 O   0  0  0  0  0  0  0  0  0  0  0  0
   -0.3920    4.0238    1.7745 C   0  0  0  0  0  0  0  0  0  0  0  0
   -1.5549   -0.5362    0.7165 C   0  0  0  0  0  0  0  0  0  0  0  0
    0.0325    0.6450   -0.8106 C   0  0  1  0  0  0  0  0  0  0  0  0
    1.1438    1.6969   -0.8794 C   0  0  3  0  0  0  0  0  0  0  0  0
   -0.7028    3.8086    3.1526 O   0  0  0  0  0  0  0  0  0  0  0  0
   -2.7314    0.0875    1.4699 C   0  0  0  0  0  0  0  0  0  0  0  0
   -3.9454   -0.8389    1.3767 C   0  0  0  0  0  0  0  0  0  0  0  0
   -5.1124   -0.2305    2.1570 C   0  0  0  0  0  0  0  0  0  0  0  0
   -1.2415    4.9557    3.8129 C   0  0  0  0  0  0  0  0  0  0  0  0
   -1.5306    4.6169    5.2526 C   0  0  0  0  0  0  0  0  0  0  0  0
   -0.5576    4.8063    6.2160 C   0  0  0  0  0  0  0  0  0  0  0  0
   -0.8228    4.4955    7.5366 C   0  0  0  0  0  0  0  0  0  0  0  0
   -2.0611    3.9957    7.8938 C   0  0  0  0  0  0  0  0  0  0  0  0
   -3.0345    3.8071    6.9305 C   0  0  0  0  0  0  0  0  0  0  0  0
   -2.7707    4.1220    5.6106 C   0  0  0  0  0  0  0  0  0  0  0  0
    1.6773    4.8470   -1.3848 C   0  0  0  0  0  0  0  0  0  0  0  0
    2.8897    5.7408   -1.3359 C   0  0  0  0  0  0  0  0  0  0  0  0
    4.0658    5.3443   -1.9445 C   0  0  0  0  0  0  0  0  0  0  0  0
    5.1779    6.1641   -1.8996 C   0  0  0  0  0  0  0  0  0  0  0  0
    5.1137    7.3807   -1.2464 C   0  0  0  0  0  0  0  0  0  0  0  0
    3.9374    7.7777   -0.6385 C   0  0  0  0  0  0  0  0  0  0  0  0
    2.8240    6.9597   -0.6871 C   0  0  0  0  0  0  0  0  0  0  0  0
    3.5037    1.8891   -0.5060 C   0  0  0  0  0  0  0  0  0  0  0  0
    4.6092    1.4175    0.4032 C   0  0  0  0  0  0  0  0  0  0  0  0
    5.4497    0.3977   -0.0022 C   0  0  0  0  0  0  0  0  0  0  0  0
    6.4638   -0.0349    0.8318 C   0  0  0  0  0  0  0  0  0  0  0  0
    6.6375    0.5526    2.0709 C   0  0  0  0  0  0  0  0  0  0  0  0
    5.7975    1.5731    2.4759 C   0  0  0  0  0  0  0  0  0  0  0  0
    4.7862    2.0086    1.6402 C   0  0  0  0  0  0  0  0  0  0  0  0
   -1.0364    0.6460   -2.9561 C   0  0  0  0  0  0  0  0  0  0  0  0
   -2.2537    1.1543   -3.6846 C   0  0  0  0  0  0  0  0  0  0  0  0
   -2.2190    2.3848   -4.3137 C   0  0  0  0  0  0  0  0  0  0  0  0
   -3.3357    2.8511   -4.9819 C   0  0  0  0  0  0  0  0  0  0  0  0
   -4.4868    2.0868   -5.0214 C   0  0  0  0  0  0  0  0  0  0  0  0
   -4.5212    0.8560   -4.3931 C   0  0  0  0  0  0  0  0  0  0  0  0
   -3.4031    0.3877   -3.7286 C   0  0  0  0  0  0  0  0  0  0  0  0
   -0.4937   -0.9031    3.2168 O   0  0  0  0  0  0  0  0  0  0  0  0
    0.4920    0.0569    2.8310 C   0  0  1  0  0  0  0  0  0  0  0  0
    1.1328   -2.6465    3.6105 C   0  0  1  0  0  0  0  0  0  0  0  0
   -0.1562   -2.2515    2.8852 C   0  0  3  0  0  0  0  0  0  0  0  0
    1.5039   -3.9746    3.2356 O   0  0  0  0  0  0  0  0  0  0  0  0
    2.5036   -1.7777    1.8163 O   0  0  0  0  0  0  0  0  0  0  0  0
    1.6152   -0.1240    4.9649 O   0  0  0  0  0  0  0  0  0  0  0  0
   -1.2908   -3.1825    3.3176 C   0  0  0  0  0  0  0  0  0  0  0  0
    1.8071   -0.2454    3.5541 C   0  0  1  0  0  0  0  0  0  0  0  0
    2.2488   -1.6732    3.2186 C   0  0  3  0  0  0  0  0  0  0  0  0
   -1.3926   -3.1794    4.7429 O   0  0  0  0  0  0  0  0  0  0  0  0
   -2.3615   -4.0945    5.2585 C   0  0  0  0  0  0  0  0  0  0  0  0
   -2.2989   -4.0969    6.7642 C   0  0  0  0  0  0  0  0  0  0  0  0
   -3.1549   -3.2923    7.4928 C   0  0  0  0  0  0  0  0  0  0  0  0
   -3.0975   -3.2945    8.8739 C   0  0  0  0  0  0  0  0  0  0  0  0
   -2.1844   -4.1015    9.5265 C   0  0  0  0  0  0  0  0  0  0  0  0
   -1.3291   -4.9068    8.7979 C   0  0  0  0  0  0  0  0  0  0  0  0
   -1.3894   -4.9079    7.4169 C   0  0  0  0  0  0  0  0  0  0  0  0
    1.1299   -4.9731    4.1870 C   0  0  0  0  0  0  0  0  0  0  0  0
    1.4679   -6.3371    3.6428 C   0  0  0  0  0  0  0  0  0  0  0  0
    2.7086   -6.8932    3.8929 C   0  0  0  0  0  0  0  0  0  0  0  0
    3.0186   -8.1443    3.3937 C   0  0  0  0  0  0  0  0  0  0  0  0
    2.0879   -8.8397    2.6447 C   0  0  0  0  0  0  0  0  0  0  0  0
    0.8469   -8.2841    2.3952 C   0  0  0  0  0  0  0  0  0  0  0  0
    0.5353   -7.0347    2.8982 C   0  0  0  0  0  0  0  0  0  0  0  0
    3.5974   -2.6361    1.4867 C   0  0  0  0  0  0  0  0  0  0  0  0
    3.6592   -2.8197   -0.0078 C   0  0  0  0  0  0  0  0  0  0  0  0
    4.7021   -2.2694   -0.7292 C   0  0  0  0  0  0  0  0  0  0  0  0
    4.7587   -2.4378   -2.1001 C   0  0  0  0  0  0  0  0  0  0  0  0
    3.7728   -3.1570   -2.7495 C   0  0  0  0  0  0  0  0  0  0  0  0
    2.7305   -3.7081   -2.0279 C   0  0  0  0  0  0  0  0  0  0  0  0
    2.6761   -3.5433   -0.6565 C   0  0  0  0  0  0  0  0  0  0  0  0
    1.8627    1.1879    5.4745 C   0  0  0  0  0  0  0  0  0  0  0  0
    1.6312    1.2004    6.9635 C   0  0  0  0  0  0  0  0  0  0  0  0
    2.6732    0.9193    7.8274 C   0  0  0  0  0  0  0  0  0  0  0  0
    2.4608    0.9308    9.1932 C   0  0  0  0  0  0  0  0  0  0  0  0
    1.2067    1.2237    9.6953 C   0  0  0  0  0  0  0  0  0  0  0  0
    0.1649    1.5057    8.8315 C   0  0  0  0  0  0  0  0  0  0  0  0
    0.3783    1.4985    7.4658 C   0  0  0  0  0  0  0  0  0  0  0  0
  1  2  1  0  0  0  0
  2 11  1  0  0  0  0
  3 12  1  0  0  0  0
  3  4  1  0  0  0  0
  1  4  1  0  0  0  0
  3  5  1  0  0  0  0
  6 12  1  0  0  0  0
  2  7  1  0  0  0  0
  8 11  1  0  0  0  0
  4  9  1  0  0  0  0
  2 10  1  0  0  0  0
 11 12  1  0  0  0  0
  9 13  1  0  0  0  0
 10 14  1  0  0  0  0
 14 15  1  0  0  0  0
 15 16  1  0  0  0  0
 13 17  1  0  0  0  0
 17 18  1  0  0  0  0
 18 19  2  0  0  0  0
 19 20  1  0  0  0  0
 20 21  2  0  0  0  0
 21 22  1  0  0  0  0
 22 23  2  0  0  0  0
 23 18  1  0  0  0  0
  5 24  1  0  0  0  0
 24 25  1  0  0  0  0
 25 26  2  0  0  0  0
 26 27  1  0  0  0  0
 27 28  2  0  0  0  0
 28 29  1  0  0  0  0
 29 30  2  0  0  0  0
 30 25  1  0  0  0  0
  6 31  1  0  0  0  0
 31 32  1  0  0  0  0
 32 33  2  0  0  0  0
 33 34  1  0  0  0  0
 34 35  2  0  0  0  0
 35 36  1  0  0  0  0
 36 37  2  0  0  0  0
 37 32  1  0  0  0  0
  8 38  1  0  0  0  0
 38 39  1  0  0  0  0
 39 40  2  0  0  0  0
 40 41  1  0  0  0  0
 41 42  2  0  0  0  0
 42 43  1  0  0  0  0
 43 44  2  0  0  0  0
 44 39  1  0  0  0  0
 45 46  1  0  0  0  0
 46 53  1  0  0  0  0
 47 54  1  0  0  0  0
 47 48  1  0  0  0  0
 45 48  1  0  0  0  0
 47 49  1  0  0  0  0
 50 54  1  0  0  0  0
 51 53  1  0  0  0  0
 48 52  1  0  0  0  0
 53 54  1  0  0  0  0
 52 55  1  0  0  0  0
 55 56  1  0  0  0  0
 56 57  1  0  0  0  0
 57 58  2  0  0  0  0
 58 59  1  0  0  0  0
 59 60  2  0  0  0  0
 60 61  1  0  0  0  0
 61 62  2  0  0  0  0
 62 57  1  0  0  0  0
 49 63  1  0  0  0  0
 63 64  1  0  0  0  0
 64 65  2  0  0  0  0
 65 66  1  0  0  0  0
 66 67  2  0  0  0  0
 67 68  1  0  0  0  0
 68 69  2  0  0  0  0
 69 64  1  0  0  0  0
 50 70  1  0  0  0  0
 70 71  1  0  0  0  0
 71 72  2  0  0  0  0
 72 73  1  0  0  0  0
 73 74  2  0  0  0  0
 74 75  1  0  0  0  0
 75 76  2  0  0  0  0
 76 71  1  0  0  0  0
 51 77  1  0  0  0  0
 77 78  1  0  0  0  0
 78 79  2  0  0  0  0
 79 80  1  0  0  0  0
 80 81  2  0  0  0  0
 81 82  1  0  0  0  0
 82 83  2  0  0  0  0
 83 78  1  0  0  0  0
 46  7  1  0  0  0  0
M  END
$$$$
