m375.cdx
  corina  12080917083D 1   1.00000     0.00000 
CORINA 3.46 0026  05.08.2008
 28 33  0  0  0  0  0  0  0  0999 V2000
   -0.0157    1.3092    0.0092 N   0  0  0  0  0  0  0  0  0  0  0  0
    0.0021   -0.0041    0.0020 C   0  0  0  0  0  0  0  0  0  0  0  0
    1.1967   -0.7123   -0.0132 C   0  0  0  0  0  0  0  0  0  0  0  0
    2.3947   -0.0272   -0.0209 C   0  0  0  0  0  0  0  0  0  0  0  0
    2.3568    1.3732   -0.0130 C   0  0  0  0  0  0  0  0  0  0  0  0
    1.1079    2.0231    0.0023 C   0  0  0  0  0  0  0  0  0  0  0  0
    3.5994    2.1558   -0.0211 C   0  0  0  0  0  0  0  0  0  0  0  0
    3.5437    3.5448   -0.0137 C   0  0  0  0  0  0  0  0  0  0  0  0
    2.2558    4.2321    0.0021 C   0  0  0  0  0  0  0  0  0  0  0  0
    1.0549    3.4931    0.0106 C   0  0  0  0  0  0  0  0  0  0  0  0
    2.1907    5.6341    0.0097 C   0  0  0  0  0  0  0  0  0  0  0  0
    0.9564    6.2267    0.0247 C   0  0  0  0  0  0  0  0  0  0  0  0
   -0.1870    5.4379    0.0320 C   0  0  0  0  0  0  0  0  0  0  0  0
   -0.1157    4.1260    0.0248 N   0  0  0  0  0  0  0  0  0  0  0  0
    4.8983    1.8033   -0.0350 N   0  0  0  0  0  0  0  0  0  0  0  0
    5.6479    2.8808   -0.0366 C   0  0  0  0  0  0  0  0  0  0  0  0
    4.8473    3.9883   -0.0237 N   0  0  0  0  0  0  0  0  0  0  0  0
   -1.3022   -0.7589    0.0109 C   0  0  0  0  0  0  0  0  0  0  0  0
   -1.5397    6.1019    0.0490 C   0  0  0  0  0  0  0  0  0  0  0  0
    7.1258    2.8943   -0.0499 C   0  0  0  0  0  0  0  0  0  0  0  0
    7.8363    1.6928   -0.0625 C   0  0  0  0  0  0  0  0  0  0  0  0
    9.2185    1.7094   -0.0753 C   0  0  0  0  0  0  0  0  0  0  0  0
    9.9006    2.9258   -0.0755 C   0  0  0  0  0  0  0  0  0  0  0  0
    9.1931    4.1194   -0.0621 C   0  0  0  0  0  0  0  0  0  0  0  0
    7.8144    4.1087   -0.0556 C   0  0  0  0  0  0  0  0  0  0  0  0
   10.1339    0.6965   -0.0894 O   0  0  0  0  0  0  0  0  0  0  0  0
   11.3703    1.3020   -0.5109 C   0  0  0  0  0  0  0  0  0  0  0  0
   11.2416    2.6726   -0.0895 O   0  0  0  0  0  0  0  0  0  0  0  0
  1  2  2  0  0  0
  2  3  1  0  0  0
  3  4  2  0  0  0
  4  5  1  0  0  0
  5  6  2  0  0  0
  6  1  1  0  0  0
  5  7  1  0  0  0
  7  8  2  0  0  0
  8  9  1  0  0  0
  9 10  2  0  0  0
 10  6  1  0  0  0
  9 11  1  0  0  0
 11 12  2  0  0  0
 12 13  1  0  0  0
 13 14  2  0  0  0
 14 10  1  0  0  0
  7 15  1  0  0  0
 15 16  2  0  0  0
 16 17  1  0  0  0
 17  8  1  0  0  0
  2 18  1  0  0  0
 13 19  1  0  0  0
 16 20  1  0  0  0
 20 21  2  0  0  0
 21 22  1  0  0  0
 22 23  2  0  0  0
 23 24  1  0  0  0
 24 25  2  0  0  0
 25 20  1  0  0  0
 22 26  1  0  0  0
 26 27  1  0  0  0
 27 28  1  0  0  0
 28 23  1  0  0  0
M  END
$$$$
