
  corina  12080917083D 1   1.00000     0.00000 
CORINA 3.46 0026  05.08.2008
 17 18  0  0  0  0  0  0  0  0999 V2000
   -0.0166    1.3760    0.0096 C   0  0  0  0  0  0  0  0  0  0  0  0
   -1.0524    2.2653    0.0298 O   0  0  0  0  0  0  0  0  0  0  0  0
   -0.4744    3.5182    0.4409 C   0  0  0  0  0  0  0  0  0  0  0  0
    0.8948    3.4237    0.0065 O   0  0  0  0  0  0  0  0  0  0  0  0
    1.1834    2.0907    0.0020 C   0  0  0  0  0  0  0  0  0  0  0  0
    2.3963    1.4146   -0.0168 C   0  0  0  0  0  0  0  0  0  0  0  0
    2.4229    0.0374   -0.0183 C   0  0  0  0  0  0  0  0  0  0  0  0
    1.2249   -0.6850   -0.0004 C   0  0  0  0  0  0  0  0  0  0  0  0
    0.0021   -0.0041    0.0020 C   0  0  0  0  0  0  0  0  0  0  0  0
    1.2503   -2.1583   -0.0090 C   0  0  0  0  0  0  0  0  0  0  0  0
    0.7371   -2.8898    1.1101 C   0  0  0  0  0  0  0  0  0  0  0  0
    1.7721   -2.8378   -1.1029 C   0  0  0  0  0  0  0  0  0  0  0  0
    1.7967   -4.2695   -1.1112 C   0  0  0  0  0  0  0  0  0  0  0  0
    2.2852   -2.1063   -2.2219 C   0  0  0  0  0  0  0  0  0  0  0  0
    1.8163   -5.4054   -1.1178 N   0  0  0  0  0  0  0  0  0  0  0  0
    2.6923   -1.5260   -3.1096 N   0  0  0  0  0  0  0  0  0  0  0  0
    0.3301   -3.4701    1.9978 N   0  0  0  0  0  0  0  0  0  0  0  0
  3  4  1  0  0  0  0
  8  9  1  0  0  0  0
  9  1  2  0  0  0  0
  4  5  1  0  0  0  0
  8 10  1  0  0  0  0
  5  1  1  0  0  0  0
 10 11  1  0  0  0  0
  1  2  1  0  0  0  0
 10 12  2  0  0  0  0
  5  6  2  0  0  0  0
 12 13  1  0  0  0  0
 12 14  1  0  0  0  0
  6  7  1  0  0  0  0
 13 15  3  0  0  0  0
  2  3  1  0  0  0  0
 14 16  3  0  0  0  0
  7  8  2  0  0  0  0
 11 17  3  0  0  0  0
M  END
$$$$
