m504.cdx
  corina  12080917093D 1   1.00000     0.00000 
CORINA 3.46 0026  05.08.2008
 34 37  0  0  0  0  0  0  0  0999 V2000
   -0.0340    1.8564    0.0168 C   0  0  0  0  0  0  0  0  0  0  0  0
   -0.0925    0.3460   -0.0249 C   0  0  0  0  0  0  0  0  0  0  0  0
    0.7312   -0.4392    0.9741 C   0  0  0  0  0  0  0  0  0  0  0  0
    2.1695    0.0843    0.9170 C   0  0  0  0  0  0  0  0  0  0  0  0
    2.1678    1.5895    1.1548 C   0  0  0  0  0  0  0  0  0  0  0  0
    1.4356    2.2951    0.0135 C   0  0  0  0  0  0  0  0  0  0  0  0
    3.0064   -0.5582    2.0285 C   0  0  0  0  0  0  0  0  0  0  0  0
    4.4564   -0.1403    1.8066 C   0  0  0  0  0  0  0  0  0  0  0  0
    4.5836    1.3413    1.5588 C   0  0  0  0  0  0  0  0  0  0  0  0
    3.5766    2.1290    1.2773 C   0  0  0  0  0  0  0  0  0  0  0  0
    5.9646    1.9197    1.6110 C   0  0  0  0  0  0  0  0  0  0  0  0
    5.8540    3.3538    2.1925 C   0  0  0  0  0  0  0  0  0  0  0  0
    5.1314    4.1517    1.1218 C   0  0  0  0  0  0  0  0  0  0  0  0
    3.6970    3.6244    1.0805 C   0  0  0  0  0  0  0  0  0  0  0  0
    6.9501    1.2666    2.5816 C   0  0  0  0  0  0  0  0  0  0  0  0
    8.0137    2.3816    2.7887 C   0  0  0  0  0  0  0  0  0  0  0  0
    7.3068    3.7236    2.4686 C   0  0  0  0  0  0  0  0  0  0  0  0
    7.3952    4.6694    3.6680 C   0  0  0  0  0  0  0  0  0  0  0  0
    6.6613    5.9725    3.3451 C   0  0  0  0  0  0  0  0  0  0  0  0
    8.8638    4.9729    3.9711 C   0  0  0  0  0  0  0  0  0  0  0  0
    8.9581    5.8166    5.2440 C   0  0  0  0  0  0  0  0  0  0  0  0
   10.4267    6.1201    5.5471 C   0  0  0  0  0  0  0  0  0  0  0  0
   10.5210    6.9638    6.8199 C   0  0  0  0  0  0  0  0  0  0  0  0
   11.9916    7.1623    7.1924 C   0  0  0  0  0  0  0  0  0  0  0  0
    9.8677    8.3261    6.5783 C   0  0  0  0  0  0  0  0  0  0  0  0
    1.4328    1.8800    2.4648 C   0  0  0  0  0  0  0  0  0  0  0  0
    0.7068   -1.9251    0.6102 C   0  0  0  0  0  0  0  0  0  0  0  0
    6.5606    1.9724    0.2029 C   0  0  0  0  0  0  0  0  0  0  0  0
    5.0389    3.3434    3.4873 C   0  0  0  0  0  0  0  0  0  0  0  0
   -0.8311   -0.2626   -0.8955 N   0  0  0  0  0  0  0  0  0  0  0  0
   -1.5876    0.4784   -1.8127 N   0  0  0  0  0  0  0  0  0  0  0  0
   -2.3393   -0.1410   -2.6987 C   0  0  0  0  0  0  0  0  0  0  0  0
   -3.0809    0.5854   -3.5977 N   0  0  0  0  0  0  0  0  0  0  0  0
   -2.3937   -1.9019   -2.7308 S   0  0  0  0  0  0  0  0  0  0  0  0
  1  2  1  0      
  2  3  1  0      
  3  4  1  0      
  4  5  1  0      
  5  6  1  0      
  6  1  1  0      
  4  7  1  0      
  7  8  1  0      
  8  9  1  0      
  9 10  2  0      
 10  5  1  0      
  9 11  1  0      
 11 12  1  0      
 12 13  1  0      
 13 14  1  0      
 14 10  1  0      
 11 15  1  0      
 15 16  1  0      
 16 17  1  0      
 17 12  1  0      
 17 18  1  0      
 18 19  1  0      
 20 18  1  0      
 21 20  1  0      
 22 21  1  0      
 23 22  1  0      
 24 23  1  0      
 23 25  1  0      
  5 26  1  0      
  3 27  1  0      
 11 28  1  0      
 12 29  1  0      
  2 30  2  0      
 30 31  1  0      
 31 32  2  0      
 32 33  1  0      
 32 34  1  0      
M  END
$$$$
