
  corina  12080917083D 1   1.00000     0.00000 
CORINA 3.46 0026  05.08.2008
 26 27  0  0  0  0  0  0  0  0999 V2000
    0.2740    1.5360    0.5060 C   0  0  1  0  0  0  0  0  0  0  0  0
    1.5998    2.2246    0.7964 C   0  0  3  0  0  0  0  0  0  0  0  0
    2.0420    1.9113    2.2242 C   0  0  0  0  0  0  0  0  0  0  0  0
    1.0410    2.5841    3.1700 C   0  0  0  0  0  0  0  0  0  0  0  0
   -0.3676    2.0459    2.9419 C   0  0  1  0  0  0  0  0  0  0  0  0
   -0.7849    2.0734    1.4782 C   0  0  2  0  0  0  0  0  0  0  0  0
    0.9098    1.4925   -1.9214 C   0  0  0  0  0  0  0  0  0  0  0  0
    2.1905    2.2716   -1.6405 C   0  0  0  0  0  0  0  0  0  0  0  0
    2.6979    1.9943   -0.2208 C   0  0  2  0  0  0  0  0  0  0  0  0
   -0.1715    1.8978   -0.9212 C   0  0  0  0  0  0  0  0  0  0  0  0
    3.3156    0.6029   -0.1409 C   0  0  0  0  0  0  0  0  0  0  0  0
    3.8286    3.0175    0.0425 C   0  0  0  0  0  0  0  0  0  0  0  0
    0.3425    0.0163    0.6120 C   0  0  0  0  0  0  0  0  0  0  0  0
   -2.0695    1.2464    1.3201 C   0  0  0  0  0  0  0  0  0  0  0  0
   -0.5181    0.6567    3.5586 C   0  0  0  0  0  0  0  0  0  0  0  0
   -1.2880    2.9356    3.6685 O   0  0  0  0  0  0  0  0  0  0  0  0
   -1.0976    3.0604    4.9913 C   0  0  0  0  0  0  0  0  0  0  0  0
   -0.2020    2.4562    5.5325 O   0  0  0  0  0  0  0  0  0  0  0  0
   -2.0010    3.9539    5.8016 C   0  0  0  0  0  0  0  0  0  0  0  0
   -3.2077    1.9200    2.0894 C   0  0  0  0  0  0  0  0  0  0  0  0
   -4.4873    1.0961    1.9319 C   0  0  2  0  0  0  0  0  0  0  0  0
   -4.9256    1.1100    0.4661 C   0  0  0  0  0  0  0  0  0  0  0  0
   -5.5927    1.6998    2.8005 C   0  0  0  0  0  0  0  0  0  0  0  0
   -6.8148    0.8201    2.7415 C   0  0  0  0  0  0  0  0  0  0  0  0
   -7.9166    1.1547    3.4313 O   0  0  0  0  0  0  0  0  0  0  0  0
   -6.8029   -0.1865    2.0733 O   0  0  0  0  0  0  0  0  0  0  0  0
  5  6  1  0  0  0  0
  1 13  1  0  0  0  0
  7  8  1  0  0  0  0
  6 14  1  0  0  0  0
  5 15  1  0  0  0  0
  1  2  1  0  0  0  0
  5 16  1  0  0  0  0
  1  6  1  0  0  0  0
 16 17  1  0  0  0  0
  2  3  1  0  0  0  0
 17 18  2  0  0  0  0
  7 10  1  0  0  0  0
 17 19  1  0  0  0  0
  8  9  1  0  0  0  0
 14 20  1  0  0  0  0
  9  2  1  0  0  0  0
 20 21  1  0  0  0  0
  1 10  1  0  0  0  0
 21 22  1  0  0  0  0
  3  4  1  0  0  0  0
 21 23  1  0  0  0  0
  9 11  1  0  0  0  0
 23 24  1  0  0  0  0
  4  5  1  0  0  0  0
 24 25  1  0  0  0  0
  9 12  1  0  0  0  0
 24 26  2  0  0  0  0
M  END
$$$$
