m441.cdx
  corina  12080917093D 1   1.00000     0.00000 
CORINA 3.46 0026  05.08.2008
 25 27  0  0  0  0  0  0  0  0999 V2000
    0.1508    1.6053   -0.3623 C   0  0  0  0  0  0  0  0  0  0  0  0
    0.1807    0.2650   -0.2078 N   0  0  0  0  0  0  0  0  0  0  0  0
    1.5170   -0.1482   -0.2856 N   0  0  0  0  0  0  0  0  0  0  0  0
    2.2615    0.9101   -0.4793 C   0  0  0  0  0  0  0  0  0  0  0  0
    1.4244    2.0294   -0.5318 C   0  0  0  0  0  0  0  0  0  0  0  0
    3.7618    0.9220   -0.6204 C   0  0  0  0  0  0  0  0  0  0  0  0
    4.1718   -0.1079   -1.5841 N   0  0  0  0  0  0  0  0  0  0  0  0
    5.0903    0.4461   -2.5878 C   0  0  0  0  0  0  0  0  0  0  0  0
    4.7730   -1.2601   -0.8994 C   0  0  0  0  0  0  0  0  0  0  0  0
   -0.9799   -0.6037    0.0031 C   0  0  0  0  0  0  0  0  0  0  0  0
   -0.5040   -2.0187    0.3375 C   0  0  0  0  0  0  0  0  0  0  0  0
   -0.8477   -2.9589   -0.8196 C   0  0  0  0  0  0  0  0  0  0  0  0
   -0.9669   -4.3908   -0.2943 C   0  0  0  0  0  0  0  0  0  0  0  0
    0.1707   -5.1821   -0.7692 N   0  0  0  0  0  0  0  0  0  0  0  0
    0.2300   -6.5290   -0.8287 C   0  0  0  0  0  0  0  0  0  0  0  0
    1.4429   -6.8669   -1.3241 C   0  0  0  0  0  0  0  0  0  0  0  0
    2.1495   -5.6862   -1.5755 C   0  0  0  0  0  0  0  0  0  0  0  0
    1.3880   -4.6756   -1.2423 N   0  0  0  0  0  0  0  0  0  0  0  0
   -0.8593   -7.4854   -0.4168 C   0  0  0  0  0  0  0  0  0  0  0  0
    3.5458   -5.5953   -2.1345 C   0  0  0  0  0  0  0  0  0  0  0  0
    3.8635   -4.1929   -2.4351 N   0  0  0  0  0  0  0  0  0  0  0  0
    2.6548   -3.3591   -2.3950 C   0  0  0  0  0  0  0  0  0  0  0  0
    4.8891   -3.6778   -1.5183 C   0  0  0  0  0  0  0  0  0  0  0  0
    5.2837   -2.2608   -1.9381 C   0  0  0  0  0  0  0  0  0  0  0  0
   -1.0811    2.4733   -0.3540 C   0  0  0  0  0  0  0  0  0  0  0  0
  1  2  1  0  0  0
  2  3  1  0  0  0
  3  4  2  0  0  0
  4  5  1  0  0  0
  5  1  2  0  0  0
  4  6  1  0  0  0
  6  7  1  0  0  0
  7  8  1  0  0  0
  7  9  1  0  0  0
  2 10  1  0  0  0
 10 11  1  0  0  0
 11 12  1  0  0  0
 12 13  1  0  0  0
 13 14  1  0  0  0
 14 15  1  0  0  0
 15 16  2  0  0  0
 16 17  1  0  0  0
 17 18  2  0  0  0
 18 14  1  0  0  0
 15 19  1  0  0  0
 17 20  1  0  0  0
 20 21  1  0  0  0
 21 22  1  0  0  0
 21 23  1  0  0  0
  9 24  1  0  0  0
 24 23  1  0  0  0
  1 25  1  0  0  0
M  END
$$$$
