
  corina  02131509343D 1   1.00000     0.00000 
CORINA 3.49 0023  12.04.2013
 78 87  0  0  0  0  0  0  0  0999 V2000
   -0.2013    1.3054    0.1421 O   0  0  0  0  0  0  0  0  0  0  0  0
   -1.8957    1.0218    2.7068 O   0  0  0  0  0  0  0  0  0  0  0  0
   -6.1947    7.9113   -1.0094 C   0  0  0  0  0  0  0  0  0  0  0  0
   -5.7358    7.1417    0.0552 C   0  0  0  0  0  0  0  0  0  0  0  0
   -5.2886    5.8681   -0.1450 C   0  0  0  0  0  0  0  0  0  0  0  0
   -5.2779    5.3235   -1.4306 C   0  0  0  0  0  0  0  0  0  0  0  0
   -4.7273    4.0012   -1.7208 C   0  0  0  0  0  0  0  0  0  0  0  0
   -3.9014    3.2927   -0.8217 C   0  0  0  0  0  0  0  0  0  0  0  0
   -3.6822    1.9103   -1.0453 C   0  0  0  0  0  0  0  0  0  0  0  0
   -3.0161    1.3591    0.0800 C   0  0  0  0  0  0  0  0  0  0  0  0
   -2.7174   -0.0777    0.2401 C   0  0  0  0  0  0  0  0  0  0  0  0
   -3.7088   -1.0776    0.4246 C   0  0  0  0  0  0  0  0  0  0  0  0
   -3.0757   -2.3281    0.6288 C   0  0  0  0  0  0  0  0  0  0  0  0
   -3.8666   -3.4366    1.0034 C   0  0  0  0  0  0  0  0  0  0  0  0
   -3.3140   -4.6677    1.5579 C   0  0  0  0  0  0  0  0  0  0  0  0
   -2.0199   -4.7515    2.0773 C   0  0  0  0  0  0  0  0  0  0  0  0
   -1.5265   -5.9521    2.4992 C   0  0  0  0  0  0  0  0  0  0  0  0
   -2.3034   -7.1041    2.4350 C   0  0  0  0  0  0  0  0  0  0  0  0
   -4.0987    1.3233   -2.2573 C   0  0  0  0  0  0  0  0  0  0  0  0
   -4.7351    2.0584   -3.1994 C   0  0  0  0  0  0  0  0  0  0  0  0
   -5.0305    3.4177   -2.9707 C   0  0  0  0  0  0  0  0  0  0  0  0
   -5.6141    4.2013   -3.9892 C   0  0  0  0  0  0  0  0  0  0  0  0
   -5.9791    5.4825   -3.7710 C   0  0  0  0  0  0  0  0  0  0  0  0
   -5.8320    6.0744   -2.4975 C   0  0  0  0  0  0  0  0  0  0  0  0
   -6.2408    7.3962   -2.2690 C   0  0  0  0  0  0  0  0  0  0  0  0
   -5.1171   -1.0003    0.4061 C   0  0  0  0  0  0  0  0  0  0  0  0
   -5.8737   -2.1061    0.5955 C   0  0  0  0  0  0  0  0  0  0  0  0
   -5.2687   -3.3535    0.8524 C   0  0  0  0  0  0  0  0  0  0  0  0
   -1.6999   -2.1495    0.3579 C   0  0  0  0  0  0  0  0  0  0  0  0
   -1.4622   -0.6910    0.2274 C   0  0  0  0  0  0  0  0  0  0  0  0
   -0.2150   -0.0472    0.1225 C   0  0  0  0  0  0  0  0  0  0  0  0
    1.0447   -0.6321   -0.0065 C   0  0  0  0  0  0  0  0  0  0  0  0
    1.3933   -1.9690   -0.0595 C   0  0  0  0  0  0  0  0  0  0  0  0
    0.5938   -3.0956    0.0102 C   0  0  0  0  0  0  0  0  0  0  0  0
   -0.7796   -3.1793    0.1881 C   0  0  0  0  0  0  0  0  0  0  0  0
    1.0785    1.9411    0.1514 C   0  0  0  0  0  0  0  0  0  0  0  0
   -3.5891   -7.0514    1.9854 C   0  0  0  0  0  0  0  0  0  0  0  0
   -4.1388   -5.8210    1.5955 C   0  0  0  0  0  0  0  0  0  0  0  0
   -5.5093   -5.7118    1.2751 C   0  0  0  0  0  0  0  0  0  0  0  0
   -6.0539   -4.5217    0.9433 C   0  0  0  0  0  0  0  0  0  0  0  0
   -2.6879    2.3971    0.9550 C   0  0  0  0  0  0  0  0  0  0  0  0
   -3.1294    3.6555    0.3055 C   0  0  0  0  0  0  0  0  0  0  0  0
   -2.8091    4.9587    0.6740 C   0  0  0  0  0  0  0  0  0  0  0  0
   -2.1403    5.3984    1.8057 C   0  0  0  0  0  0  0  0  0  0  0  0
   -1.6204    4.6581    2.8522 C   0  0  0  0  0  0  0  0  0  0  0  0
   -1.5985    3.2885    3.0416 C   0  0  0  0  0  0  0  0  0  0  0  0
   -2.0716    2.2703    2.2143 C   0  0  0  0  0  0  0  0  0  0  0  0
   -1.3721    0.9150    4.0321 C   0  0  0  0  0  0  0  0  0  0  0  0
   -6.5154    8.9273   -0.8339 H   0  0  0  0  0  0  0  0  0  0  0  0
   -5.7305    7.5582    1.0516 H   0  0  0  0  0  0  0  0  0  0  0  0
   -4.9754    5.2752    0.7019 H   0  0  0  0  0  0  0  0  0  0  0  0
   -1.4134   -3.8630    2.1752 H   0  0  0  0  0  0  0  0  0  0  0  0
   -0.5209   -6.0077    2.8889 H   0  0  0  0  0  0  0  0  0  0  0  0
   -1.8836   -8.0490    2.7424 H   0  0  0  0  0  0  0  0  0  0  0  0
   -3.9102    0.2765   -2.4410 H   0  0  0  0  0  0  0  0  0  0  0  0
   -5.0196    1.5983   -4.1342 H   0  0  0  0  0  0  0  0  0  0  0  0
   -5.7727    3.7649   -4.9642 H   0  0  0  0  0  0  0  0  0  0  0  0
   -6.3918    6.0633   -4.5821 H   0  0  0  0  0  0  0  0  0  0  0  0
   -6.5909    8.0048   -3.0906 H   0  0  0  0  0  0  0  0  0  0  0  0
   -5.6008   -0.0503    0.2362 H   0  0  0  0  0  0  0  0  0  0  0  0
   -6.9498   -2.0316    0.5488 H   0  0  0  0  0  0  0  0  0  0  0  0
    1.8678    0.0651   -0.0773 H   0  0  0  0  0  0  0  0  0  0  0  0
    2.4488   -2.1644   -0.1676 H   0  0  0  0  0  0  0  0  0  0  0  0
    1.1095   -4.0397   -0.0852 H   0  0  0  0  0  0  0  0  0  0  0  0
   -1.1906   -4.1783    0.1536 H   0  0  0  0  0  0  0  0  0  0  0  0
    1.6658    1.5632    0.9883 H   0  0  0  0  0  0  0  0  0  0  0  0
    1.5974    1.7268   -0.7829 H   0  0  0  0  0  0  0  0  0  0  0  0
    0.9483    3.0182    0.2559 H   0  0  0  0  0  0  0  0  0  0  0  0
   -4.1809   -7.9526    1.9275 H   0  0  0  0  0  0  0  0  0  0  0  0
   -6.1307   -6.5943    1.2980 H   0  0  0  0  0  0  0  0  0  0  0  0
   -7.1145   -4.4623    0.7484 H   0  0  0  0  0  0  0  0  0  0  0  0
   -3.0929    5.7316   -0.0278 H   0  0  0  0  0  0  0  0  0  0  0  0
   -2.0078    6.4675    1.8832 H   0  0  0  0  0  0  0  0  0  0  0  0
   -1.1669    5.2379    3.6422 H   0  0  0  0  0  0  0  0  0  0  0  0
   -1.1486    2.9549    3.9666 H   0  0  0  0  0  0  0  0  0  0  0  0
   -0.3555    1.3075    4.0539 H   0  0  0  0  0  0  0  0  0  0  0  0
   -1.9974    1.4877    4.7171 H   0  0  0  0  0  0  0  0  0  0  0  0
   -1.3641   -0.1317    4.3364 H   0  0  0  0  0  0  0  0  0  0  0  0
  1 31  1  0      
  1 36  1  0      
  2 47  1  0      
  2 48  1  0      
  3  4  1  0      
  3 25  2  0      
  3 49  1  0      
  4  5  2  0      
  4 50  1  0      
  5  6  1  0      
  5 51  1  0      
  6  7  1  0      
  6 24  2  0      
  7  8  1  0      
  7 21  2  0      
  8  9  2  0      
 42  8  1  0      
  9 10  1  0      
  9 19  1  0      
 10 11  1  0      
 10 41  2  0      
 11 12  1  0      
 11 30  2  0      
 12 13  2  0      
 12 26  1  0      
 13 14  1  0      
 29 13  1  0      
 14 15  1  0      
 14 28  2  0      
 15 16  1  0      
 15 38  2  0      
 16 17  2  0      
 16 52  1  0      
 17 18  1  0      
 17 53  1  0      
 18 37  2  0      
 18 54  1  0      
 19 20  2  0      
 19 55  1  0      
 21 20  1  0      
 20 56  1  0      
 22 21  1  0      
 23 22  2  0      
 22 57  1  0      
 23 24  1  0      
 23 58  1  0      
 24 25  1  0      
 25 59  1  0      
 26 27  2  0      
 26 60  1  0      
 27 28  1  0      
 27 61  1  0      
 28 40  1  0      
 29 30  1  0      
 35 29  2  0      
 30 31  1  0      
 31 32  2  0      
 32 33  1  0      
 32 62  1  0      
 33 34  2  0      
 33 63  1  0      
 35 34  1  0      
 34 64  1  0      
 35 65  1  0      
 36 66  1  0      
 36 67  1  0      
 36 68  1  0      
 37 38  1  0      
 37 69  1  0      
 38 39  1  0      
 39 40  2  0      
 39 70  1  0      
 40 71  1  0      
 41 42  1  0      
 41 47  1  0      
 43 42  2  0      
 44 43  1  0      
 43 72  1  0      
 44 45  2  0      
 44 73  1  0      
 45 46  1  0      
 45 74  1  0      
 46 47  2  0      
 46 75  1  0      
 48 76  1  0      
 48 77  1  0      
 48 78  1  0      
M  END
$$$$
