
  corina  12080917093D 1   1.00000     0.00000 
CORINA 3.46 0026  05.08.2008
 42 45  0  0  0  0  0  0  0  0999 V2000
   -0.2190    0.7482   -0.3976 C   0  0  0  0  0  0  0  0  0  0  0  0
   -1.4049    1.4697   -0.3057 C   0  0  0  0  0  0  0  0  0  0  0  0
   -2.6094    0.7793   -0.2254 C   0  0  0  0  0  0  0  0  0  0  0  0
   -2.6297   -0.5479   -0.2357 N   0  0  0  0  0  0  0  0  0  0  0  0
   -1.5228   -1.2581   -0.3217 C   0  0  0  0  0  0  0  0  0  0  0  0
   -0.2891   -0.6435   -0.4053 C   0  0  0  0  0  0  0  0  0  0  0  0
   -3.8837    1.5333   -0.1269 C   0  0  0  0  0  0  0  0  0  0  0  0
   -5.0878    0.8429   -0.0409 C   0  0  0  0  0  0  0  0  0  0  0  0
   -6.2732    1.5643    0.0568 C   0  0  0  0  0  0  0  0  0  0  0  0
   -6.2031    2.9560    0.0643 C   0  0  0  0  0  0  0  0  0  0  0  0
   -4.9699    3.5707   -0.0247 C   0  0  0  0  0  0  0  0  0  0  0  0
   -3.8634    2.8605   -0.1162 N   0  0  0  0  0  0  0  0  0  0  0  0
    0.9770    1.3845   -0.4834 O   0  0  0  0  0  0  0  0  0  0  0  0
   -7.4692    0.9280    0.1422 O   0  0  0  0  0  0  0  0  0  0  0  0
   -7.4646   -0.4259    0.2590 C   0  0  0  0  0  0  0  0  0  0  0  0
    2.1047    0.6263   -0.4810 C   0  0  0  0  0  0  0  0  0  0  0  0
   -6.9859   -1.0219    1.4169 C   0  0  0  0  0  0  0  0  0  0  0  0
   -6.9876   -2.3982    1.5354 C   0  0  0  0  0  0  0  0  0  0  0  0
   -7.4654   -3.1818    0.5011 C   0  0  0  0  0  0  0  0  0  0  0  0
   -7.9425   -2.5903   -0.6540 C   0  0  0  0  0  0  0  0  0  0  0  0
   -7.9439   -1.2144   -0.7772 C   0  0  0  0  0  0  0  0  0  0  0  0
    2.4765   -0.0698   -1.6222 C   0  0  0  0  0  0  0  0  0  0  0  0
    3.6264   -0.8353   -1.6190 C   0  0  0  0  0  0  0  0  0  0  0  0
    4.4063   -0.9086   -0.4796 C   0  0  0  0  0  0  0  0  0  0  0  0
    4.0380   -0.2160    0.6591 C   0  0  0  0  0  0  0  0  0  0  0  0
    2.8893    0.5513    0.6609 C   0  0  0  0  0  0  0  0  0  0  0  0
    5.6597   -1.7454   -0.4786 C   0  0  0  0  0  0  0  0  0  0  0  0
    6.8454   -0.8882   -0.9261 C   0  0  0  0  0  0  0  0  0  0  0  0
    8.1179   -1.7377   -0.9251 C   0  0  0  0  0  0  0  0  0  0  0  0
    9.3036   -0.8806   -1.3726 C   0  0  0  0  0  0  0  0  0  0  0  0
   10.5762   -1.7301   -1.3716 C   0  0  0  0  0  0  0  0  0  0  0  0
   11.7619   -0.8730   -1.8191 C   0  0  0  0  0  0  0  0  0  0  0  0
   13.0344   -1.7224   -1.8181 C   0  0  0  0  0  0  0  0  0  0  0  0
   14.2201   -0.8653   -2.2656 C   0  0  0  0  0  0  0  0  0  0  0  0
   -7.4655   -4.6830    0.6329 C   0  0  0  0  0  0  0  0  0  0  0  0
   -8.7885   -5.1406    1.2504 C   0  0  0  0  0  0  0  0  0  0  0  0
   -8.7887   -6.6647    1.3842 C   0  0  0  0  0  0  0  0  0  0  0  0
  -10.1116   -7.1223    2.0017 C   0  0  0  0  0  0  0  0  0  0  0  0
  -10.1118   -8.6465    2.1355 C   0  0  0  0  0  0  0  0  0  0  0  0
  -11.4348   -9.1041    2.7530 C   0  0  0  0  0  0  0  0  0  0  0  0
  -11.4349  -10.6282    2.8868 C   0  0  0  0  0  0  0  0  0  0  0  0
  -12.7579  -11.0858    3.5042 C   0  0  0  0  0  0  0  0  0  0  0  0
  9 10  2  0  0  0  0
 20 21  2  0  0  0  0
 21 15  1  0  0  0  0
  2  3  1  0  0  0  0
 16 22  2  0  0  0  0
 10 11  1  0  0  0  0
 22 23  1  0  0  0  0
  5  6  2  0  0  0  0
 23 24  2  0  0  0  0
 11 12  2  0  0  0  0
 24 25  1  0  0  0  0
 12  7  1  0  0  0  0
 25 26  2  0  0  0  0
 26 16  1  0  0  0  0
  6  1  1  0  0  0  0
 24 27  1  0  0  0  0
  1 13  1  0  0  0  0
 27 28  1  0  0  0  0
  1  2  2  0  0  0  0
 28 29  1  0  0  0  0
  9 14  1  0  0  0  0
 29 30  1  0  0  0  0
  3  7  1  0  0  0  0
 30 31  1  0  0  0  0
 14 15  1  0  0  0  0
 31 32  1  0  0  0  0
  3  4  2  0  0  0  0
 32 33  1  0  0  0  0
 13 16  1  0  0  0  0
 33 34  1  0  0  0  0
  7  8  2  0  0  0  0
 19 35  1  0  0  0  0
 15 17  2  0  0  0  0
 35 36  1  0  0  0  0
 36 37  1  0  0  0  0
 17 18  1  0  0  0  0
 37 38  1  0  0  0  0
  8  9  1  0  0  0  0
 38 39  1  0  0  0  0
 18 19  2  0  0  0  0
 39 40  1  0  0  0  0
  4  5  1  0  0  0  0
 40 41  1  0  0  0  0
 19 20  1  0  0  0  0
 41 42  1  0  0  0  0
M  END

$$$$
