
  corina  03301509523D 1   1.00000     0.00000 
CORINA 3.49 0023  12.04.2013
 57 63  0  0  0  0  0  0  0  0  1 V2000
   -0.0173    1.4248    0.0099 C   0  0  0  0  0  0  0  0  0  0  0  0
    0.0021   -0.0041    0.0020 O   0  0  0  0  0  0  0  0  0  0  0  0
    1.7004  -17.8849   10.2744 C   0  0  0  0  0  0  0  0  0  0  0  0
    1.9792  -17.0198    9.1717 O   0  0  0  0  0  0  0  0  0  0  0  0
    3.5087  -15.5280    8.1415 C   0  0  0  0  0  0  0  0  0  0  0  0
    3.1784  -16.3785    9.1779 C   0  0  0  0  0  0  0  0  0  0  0  0
    4.0678  -16.5817   10.2296 C   0  0  0  0  0  0  0  0  0  0  0  0
    5.2861  -15.9398   10.2519 C   0  0  0  0  0  0  0  0  0  0  0  0
   -1.2514   -2.0177    0.0036 C   0  0  0  0  0  0  0  0  0  0  0  0
   -1.2011   -0.6379    0.0101 C   0  0  0  0  0  0  0  0  0  0  0  0
   -2.3771    0.1072    0.0253 C   0  0  0  0  0  0  0  0  0  0  0  0
   -3.6039   -0.5186    0.0346 C   0  0  0  0  0  0  0  0  0  0  0  0
   -4.2463   -4.0820    0.0224 C   0  0  0  0  0  0  0  0  0  0  0  0
   -4.7263   -2.8010    0.0344 N   0  0  0  0  0  0  0  0  0  0  0  0
   -3.6760   -1.9073    0.0283 C   0  0  0  0  0  0  0  0  0  0  0  0
   -2.4897   -2.6629    0.0124 C   0  0  0  0  0  0  0  0  0  0  0  0
    6.5940  -13.6345    7.7849 C   0  0  0  0  0  0  0  0  0  0  0  0
    6.7547  -14.3120    8.9625 N   0  0  0  0  0  0  0  0  0  0  0  0
    5.6376  -15.0793    9.2176 C   0  0  0  0  0  0  0  0  0  0  0  0
    4.7412  -14.8719    8.1537 C   0  0  0  0  0  0  0  0  0  0  0  0
    5.3998  -13.9286    7.2468 C   0  0  0  0  0  0  0  0  0  0  0  0
    4.8422  -13.3900    5.9545 C   0  0  0  0  0  0  0  0  0  0  0  0
   -2.9040   -4.0680    0.0094 C   0  0  0  0  0  0  0  0  0  0  0  0
   -1.9954   -5.2702   -0.0051 C   0  0  0  0  0  0  0  0  0  0  0  0
   -1.5741   -5.6083    1.4264 C   0  0  0  0  0  0  0  0  0  0  0  0
    3.9573  -12.1767    6.2473 C   0  0  0  0  0  0  0  0  0  0  0  0
    9.4248  -11.8552   -5.3193 C   0  0  0  0  0  0  0  0  0  0  0  0
    8.5292  -11.9054   -4.2069 O   0  0  0  0  0  0  0  0  0  0  0  0
    6.5766  -14.7756   -5.3107 C   0  0  0  0  0  0  0  0  0  0  0  0
    7.5261  -13.7784   -5.2836 C   0  0  0  0  0  0  0  0  0  0  0  0
    7.5848  -12.8838   -4.2184 C   0  0  0  0  0  0  0  0  0  0  0  0
    6.6887  -12.9868   -3.1729 C   0  0  0  0  0  0  0  0  0  0  0  0
    5.7215  -13.9937   -3.1901 C   0  0  0  0  0  0  0  0  0  0  0  0
    5.6648  -14.8959   -4.2677 C   0  0  0  0  0  0  0  0  0  0  0  0
    4.6251  -15.7657   -4.0145 N   0  0  0  0  0  0  0  0  0  0  0  0
    4.0302  -15.4450   -2.8250 C   0  0  0  0  0  0  0  0  0  0  0  0
    4.6446  -14.3847   -2.2770 C   0  0  0  0  0  0  0  0  0  0  0  0
    4.2929  -13.7218   -0.9702 C   0  0  0  0  0  0  0  0  0  0  0  0
    2.3195  -10.0427    6.0580 O   0  0  0  0  0  0  0  0  0  0  0  0
   -0.4758   -6.7240    3.6221 O   0  0  0  0  0  0  0  0  0  0  0  0
    1.7612  -10.3797   -0.9933 O   0  0  0  0  0  0  0  0  0  0  0  0
    3.3806  -12.2375    0.8681 H   0  0  0  0  0  0  0  0  0  0  0  0
    3.3643  -12.5347   -1.2342 C   0  0  0  0  0  0  0  0  0  0  0  0
    3.0224  -11.8903    0.0362 N   0  0  0  0  0  0  0  0  0  0  0  0
    2.2101  -10.8149    0.0491 C   0  0  0  0  0  0  0  0  0  0  0  0
   -0.4646   -7.2039    0.5712 H   0  0  0  0  0  0  0  0  0  0  0  0
    3.6411  -12.0801    4.1500 H   0  0  0  0  0  0  0  0  0  0  0  0
   -0.6908   -6.7770    1.4123 N   0  0  0  0  0  0  0  0  0  0  0  0
    2.6026  -10.5779    5.0040 C   0  0  0  0  0  0  0  0  0  0  0  0
   -0.1924   -7.2590    2.5680 C   0  0  0  0  0  0  0  0  0  0  0  0
    2.3804  -10.6630    2.5270 C   0  0  0  0  0  0  0  0  0  0  0  0
    1.8649  -10.1644    1.3315 C   0  0  0  0  0  0  0  0  0  0  0  0
    1.0246   -9.0519    1.3448 C   0  0  0  0  0  0  0  0  0  0  0  0
    0.6992   -8.4386    2.5538 C   0  0  0  0  0  0  0  0  0  0  0  0
    1.2148   -8.9372    3.7494 C   0  0  0  0  0  0  0  0  0  0  0  0
    2.0554  -10.0494    3.7360 C   0  0  0  0  0  0  0  0  0  0  0  0
    3.4152  -11.6530    4.9911 N   0  0  0  0  0  0  0  0  0  0  0  0
  2  1  1  0
 10  2  1  0
  4  3  1  0
  6  4  1  0
 19  8  2  0
  8  7  1  0
  7  6  2  0
  6  5  1  0
  5 20  2  0
 15 12  2  0
 12 11  1  0
 11 10  2  0
 10  9  1  0
  9 16  2  0
 23 16  1  0
 16 15  1  0
 15 14  1  0
 14 13  1  0
 13 23  2  0
 21 20  1  0
 20 19  1  0
 19 18  1  0
 18 17  1  0
 17 21  2  0
 22 21  1  0
 26 22  1  0
 24 23  1  0
 25 24  1  0
 48 25  1  0
 57 26  1  0
 28 27  1  0
 31 28  1  0
 33 32  2  0
 32 31  1  0
 31 30  2  0
 30 29  1  0
 29 34  2  0
 37 36  2  0
 36 35  1  0
 35 34  1  0
 34 33  1  0
 33 37  1  0
 38 37  1  0
 43 38  1  0
 49 39  2  0
 50 40  2  0
 45 41  2  0
 44 42  1  0
 44 43  1  0
 45 44  1  0
 52 45  1  0
 48 46  1  0
 57 47  1  0
 57 49  1  0
 50 48  1  0
 56 49  1  0
 54 50  1  0
 56 55  1  0
 55 54  2  0
 54 53  1  0
 53 52  2  0
 52 51  1  0
 51 56  2  0
M  END
$$$$
