untitled.mol
  corina  02141208133D 1   1.00000     0.00000 
CORINA 3.49 0024  01.06.2011
 35 39  0  0  0  0  0  0  0  0999 V2000
    0.2242    1.5396    0.4305 N   0  0  0  0  0  0  0  0  0  0  0  0
    0.0987    0.2275    0.4200 C   0  0  0  0  0  0  0  0  0  0  0  0
    1.3014   -0.3065    0.0335 N   0  0  0  0  0  0  0  0  0  0  0  0
    2.1572    0.7800   -0.1871 N   0  0  0  0  0  0  0  0  0  0  0  0
    1.4656    1.8753    0.0645 C   0  0  0  0  0  0  0  0  0  0  0  0
   -2.3746   -0.5659    1.1457 C   0  0  0  0  0  0  0  0  0  0  0  0
   -2.8720   -1.7784    1.2530 N   0  0  0  0  0  0  0  0  0  0  0  0
   -1.8931   -2.7202    0.9194 N   0  0  0  0  0  0  0  0  0  0  0  0
   -0.9872   -0.7010    0.7171 C   0  0  0  0  0  0  0  0  0  0  0  0
   -0.7359   -2.0745    0.5898 C   0  0  0  0  0  0  0  0  0  0  0  0
    0.4807   -2.4856    0.2031 N   0  0  0  0  0  0  0  0  0  0  0  0
    1.4460   -1.6537   -0.0603 C   0  0  0  0  0  0  0  0  0  0  0  0
    1.9833    3.2597   -0.0419 C   0  0  0  0  0  0  0  0  0  0  0  0
    2.2048    3.9926    1.0850 C   0  0  0  0  0  0  0  0  0  0  0  0
    2.4111    5.0500    1.0095 H   0  0  0  0  0  0  0  0  0  0  0  0
   -2.0720   -4.1087    0.9226 C   0  0  0  0  0  0  0  0  0  0  0  0
   -2.8936   -4.7024    1.8720 C   0  0  0  0  0  0  0  0  0  0  0  0
   -3.0724   -6.0718    1.8688 C   0  0  0  0  0  0  0  0  0  0  0  0
   -2.4346   -6.8518    0.9217 C   0  0  0  0  0  0  0  0  0  0  0  0
   -1.6155   -6.2638   -0.0248 C   0  0  0  0  0  0  0  0  0  0  0  0
   -1.4328   -4.8949   -0.0274 C   0  0  0  0  0  0  0  0  0  0  0  0
   -3.0916    0.7040    1.4119 C   0  0  0  0  0  0  0  0  0  0  0  0
   -4.4490    0.8167    1.1146 C   0  0  0  0  0  0  0  0  0  0  0  0
   -5.1125    1.9995    1.3698 C   0  0  0  0  0  0  0  0  0  0  0  0
   -4.4333    3.0722    1.9190 C   0  0  0  0  0  0  0  0  0  0  0  0
   -3.0864    2.9662    2.2160 C   0  0  0  0  0  0  0  0  0  0  0  0
   -2.4125    1.7882    1.9656 C   0  0  0  0  0  0  0  0  0  0  0  0
    2.1660    3.3916    2.3070 N   0  0  0  0  0  0  0  0  0  0  0  0
    2.0390    1.9353    2.4034 C   0  0  0  0  0  0  0  0  0  0  0  0
    2.2514    4.2017    3.5246 C   0  0  0  0  0  0  0  0  0  0  0  0
    2.2567    3.8396   -1.3574 C   0  0  0  0  0  0  0  0  0  0  0  0
    2.5924    5.0051   -1.4505 O   0  0  0  0  0  0  0  0  0  0  0  0
    2.1364    3.0816   -2.4669 O   0  0  0  0  0  0  0  0  0  0  0  0
    2.2090    2.7198   -4.8552 C   0  0  0  0  0  0  0  0  0  0  0  0
    2.5261    3.6782   -3.7055 C   0  0  0  0  0  0  0  0  0  0  0  0
  1  2  2  0      
  2  3  1  0      
  3  4  1  0      
  4  5  2  0      
  1  5  1  0      
  6  7  2  0      
  7  8  1  0      
  8 10  1  0      
  6  9  1  0      
  9 10  2  0      
  9  2  1  0      
 10 11  1  0      
 11 12  2  0      
 12  3  1  0      
  5 13  1  0      
 13 14  2  0      
 14 15  1  0      
 16 17  2  0      
 17 18  1  0      
 18 19  2  0      
 19 20  1  0      
 20 21  2  0      
 16 21  1  0      
  8 16  1  0      
 22 23  2  0      
 23 24  1  0      
 24 25  2  0      
 25 26  1  0      
 26 27  2  0      
 22 27  1  0      
  6 22  1  0      
 28 29  1  0      
 28 30  1  0      
 14 28  1  0      
 31 32  2  0      
 31 33  1  0      
 33 35  1  0      
 34 35  1  0      
 13 31  1  0      
M  STY  1   1 SUP
M  SLB  1   1   1
M  SAL   1  6  16  17  18  19  20  21
M  SBL   1  1  24
M  SMT   1 Ph
M  SBV   1 24   -6.9417    5.8706
M  STY  1   2 SUP
M  SLB  1   2   2
M  SAL   2  6  22  23  24  25  26  27
M  SBL   2  1  31
M  SMT   2 Ph
M  SBV   2 31   -7.5842    7.3372
M  STY  1   3 SUP
M  SLB  1   3   3
M  SAL   3  3  28  29  30
M  SBL   3  1  34
M  SMT   3 N(Me)2
M  SBV   3 34   -6.7087    5.8201
M  STY  1   4 SUP
M  SLB  1   4   4
M  SAL   4  5  31  32  33  34  35
M  SBL   4  1  39
M  SMT   4 COOEt
M  SBV   4 39   -7.2405    7.6625
M  END
$$$$
