molbank-2004-M406-s003.mol
  corina  04131423293D 1   1.00000     0.00000 
CORINA 3.49 0023  12.04.2013
 12 12  0  0  0  0  0  0  0  0999 V2000
   -0.0184    1.5028    0.0103 C   0  0  0  0  0  0  0  0  0  0  0  0
    0.0021   -0.0041    0.0020 C   0  0  0  0  0  0  0  0  0  0  0  0
   -1.4117   -0.5257    0.0127 C   0  0  0  0  0  0  0  0  0  0  0  0
   -2.3401    0.2465    0.0257 O   0  0  0  0  0  0  0  0  0  0  0  0
   -1.6670   -2.0109    0.0072 C   0  0  0  0  0  0  0  0  0  0  0  0
   -3.4440   -2.3154    0.0225 Cl  0  0  0  0  0  0  0  0  0  0  0  0
    0.7182   -0.4975   -1.2568 C   0  0  0  0  0  0  0  0  0  0  0  0
    0.7421   -0.5109    1.2415 C   0  0  0  0  0  0  0  0  0  0  0  0
    1.0620    2.3042    0.0043 C   0  0  0  0  0  0  0  0  0  0  0  0
    0.5848    3.6350    0.0160 C   0  0  0  0  0  0  0  0  0  0  0  0
   -0.7586    3.5672    0.0285 C   0  0  0  0  0  0  0  0  0  0  0  0
   -1.1183    2.2733    0.0191 O   0  0  0  0  0  0  0  0  0  0  0  0
  1  2  1  0      
  2  3  1  0      
  3  4  2  0      
  3  5  1  0      
  5  6  1  0      
  2  7  1  0      
  2  8  1  0      
  1  9  2  0      
  9 10  1  0      
 10 11  2  0      
 11 12  1  0      
  1 12  1  0      
M  END
$$$$
