
  corina  12080917093D 1   1.00000     0.00000 
CORINA 3.46 0026  05.08.2008
 18 19  0  0  0  0  0  0  0  0999 V2000
   -0.0169    1.3933    0.0097 N   0  0  3  0  0  0  0  0  0  0  0  0
   -1.2881    1.8274    0.0183 C   0  0  0  0  0  0  0  0  0  0  0  0
   -2.1128    0.7131    0.0163 C   0  0  0  0  0  0  0  0  0  0  0  0
   -1.2269   -0.4535    0.0056 C   0  0  0  0  0  0  0  0  0  0  0  0
    0.0021   -0.0041    0.0020 N   0  0  0  0  0  0  0  0  0  0  0  0
    1.1168    2.2158    0.0033 C   0  0  0  0  0  0  0  0  0  0  0  0
    0.9743    3.5971    0.0173 C   0  0  0  0  0  0  0  0  0  0  0  0
    2.0942    4.4053    0.0166 C   0  0  0  0  0  0  0  0  0  0  0  0
    3.3564    3.8405    0.0016 C   0  0  0  0  0  0  0  0  0  0  0  0
    3.5016    2.4653   -0.0124 C   0  0  0  0  0  0  0  0  0  0  0  0
    2.3857    1.6516   -0.0113 C   0  0  0  0  0  0  0  0  0  0  0  0
   -1.6093   -1.7568    0.0008 O   0  0  0  0  0  0  0  0  0  0  0  0
   -0.5702   -2.7377   -0.0097 C   0  0  0  0  0  0  0  0  0  0  0  0
   -3.5778    0.7041    0.0239 C   0  0  0  0  0  0  0  0  0  0  0  0
   -4.2639    1.8758    0.0336 C   0  0  0  0  0  0  0  0  0  0  0  0
   -5.6684    1.8671    0.0409 C   0  0  0  0  0  0  0  0  0  0  0  0
   -6.2824    2.9156    0.0495 O   0  0  0  0  0  0  0  0  0  0  0  0
   -6.2026    0.9285    0.0388 H   0  0  0  0  0  0  0  0  0  0  0  0
  8  9  2  0  0  0  0
  3  4  1  0  0  0  0
  9 10  1  0  0  0  0
  5  1  1  0  0  0  0
 10 11  2  0  0  0  0
 11  6  1  0  0  0  0
  4 12  1  0  0  0  0
  1  6  1  0  0  0  0
 12 13  1  0  0  0  0
  4  5  2  0  0  0  0
  3 14  1  0  0  0  0
  6  7  2  0  0  0  0
 14 15  2  0  0  0  0
  2  3  2  0  0  0  0
 15 16  1  0  0  0  0
  7  8  1  0  0  0  0
 16 17  2  0  0  0  0
  1  2  1  0  0  0  0
 16 18  1  0  0  0  0
M  END
$$$$
