
  corina  12080917083D 1   1.00000     0.00000 
CORINA 3.46 0026  05.08.2008
 18 19  0  0  0  0  0  0  0  0999 V2000
   -0.0167    1.3793    0.0096 C   0  0  0  0  0  0  0  0  0  0  0  0
    1.1707    2.0862    0.0021 C   0  0  0  0  0  0  0  0  0  0  0  0
    2.3773    1.4113   -0.0135 C   0  0  0  0  0  0  0  0  0  0  0  0
    2.3965    0.0293   -0.0211 C   0  0  0  0  0  0  0  0  0  0  0  0
    1.2093   -0.6788   -0.0136 C   0  0  0  0  0  0  0  0  0  0  0  0
    0.0021   -0.0041    0.0020 C   0  0  0  0  0  0  0  0  0  0  0  0
   -1.6224   -0.9720    0.0130 Br  0  0  0  0  0  0  0  0  0  0  0  0
    1.2304   -2.1856   -0.0229 C   0  0  0  0  0  0  0  0  0  0  0  0
    1.0046   -2.6998    1.3756 C   0  0  0  0  0  0  0  0  0  0  0  0
    0.9809   -4.1457    1.6314 C   0  0  0  0  0  0  0  0  0  0  0  0
    0.8425   -1.9194    2.2899 O   0  0  0  0  0  0  0  0  0  0  0  0
    0.7713   -4.6261    2.9300 C   0  0  0  0  0  0  0  0  0  0  0  0
    0.7500   -5.9771    3.1635 C   0  0  0  0  0  0  0  0  0  0  0  0
    0.9362   -6.8698    2.1134 C   0  0  0  0  0  0  0  0  0  0  0  0
    1.1452   -6.3979    0.8219 C   0  0  0  0  0  0  0  0  0  0  0  0
    1.1620   -5.0489    0.5766 C   0  0  0  0  0  0  0  0  0  0  0  0
    0.9143   -8.2055    2.3497 O   0  0  0  0  0  0  0  0  0  0  0  0
    1.1122   -9.0664    1.2264 C   0  0  0  0  0  0  0  0  0  0  0  0
  8  9  1  0  0  0  0
  4  5  1  0  0  0  0
  9 10  1  0  0  0  0
  2  3  1  0  0  0  0
  9 11  2  0  0  0  0
  5  6  2  0  0  0  0
 10 12  2  0  0  0  0
  6  1  1  0  0  0  0
 12 13  1  0  0  0  0
  1  2  2  0  0  0  0
 13 14  2  0  0  0  0
  6  7  1  0  0  0  0
 14 15  1  0  0  0  0
  3  4  2  0  0  0  0
 15 16  2  0  0  0  0
 16 10  1  0  0  0  0
  5  8  1  0  0  0  0
 14 17  1  0  0  0  0
 17 18  1  0  0  0  0
M  END
$$$$
