
  corina  12080917093D 1   1.00000     0.00000 
CORINA 3.46 0026  05.08.2008
 33 36  0  0  0  0  0  0  0  0999 V2000
   -0.0171    1.3819   -0.0147 C   0  0  0  0  0  0  0  0  0  0  0  0
   -1.2500    2.0559    0.0175 C   0  0  0  0  0  0  0  0  0  0  0  0
    0.0014   -0.0034   -0.0462 C   0  0  0  0  0  0  0  0  0  0  0  0
   -2.4488    1.3326    0.0174 C   0  0  0  0  0  0  0  0  0  0  0  0
   -1.1894   -0.7138   -0.0404 C   0  0  0  0  0  0  0  0  0  0  0  0
   -2.4104   -0.0495   -0.0147 C   0  0  0  0  0  0  0  0  0  0  0  0
    1.1333    2.0886   -0.0203 O   0  0  0  0  0  0  0  0  0  0  0  0
    1.1501    3.4309    0.0089 C   0  0  0  0  0  0  0  0  0  0  0  0
   -1.2457    3.5286    0.0505 C   0  0  0  0  0  0  0  0  0  0  0  0
    0.0109    4.1760    0.0468 C   0  0  0  0  0  0  0  0  0  0  0  0
    2.4497    4.1236    0.0001 C   0  0  0  0  0  0  0  0  0  0  0  0
    3.7185    6.1608   -0.1059 C   0  0  0  0  0  0  0  0  0  0  0  0
    2.5018    5.5172   -0.0985 C   0  0  0  0  0  0  0  0  0  0  0  0
    4.8983    5.4296   -0.0156 C   0  0  0  0  0  0  0  0  0  0  0  0
    4.8579    4.0465    0.0879 C   0  0  0  0  0  0  0  0  0  0  0  0
    3.6411    3.3878    0.0965 C   0  0  0  0  0  0  0  0  0  0  0  0
    3.5997    2.0351    0.1982 O   0  0  0  0  0  0  0  0  0  0  0  0
    6.0941    6.0722   -0.0236 O   0  0  0  0  0  0  0  0  0  0  0  0
   -2.2868    4.1651    0.0788 O   0  0  0  0  0  0  0  0  0  0  0  0
   -3.6396    1.9829    0.0490 O   0  0  0  0  0  0  0  0  0  0  0  0
   -1.1629   -2.0707   -0.0718 O   0  0  0  0  0  0  0  0  0  0  0  0
   -3.0838   -2.5342   -1.3134 O   0  0  0  0  0  0  0  0  0  0  0  0
   -2.4230   -2.7445   -0.0639 C   0  0  3  0  0  0  0  0  0  0  0  0
   -2.3452   -2.9913   -2.4482 C   0  0  3  0  0  0  0  0  0  0  0  0
   -2.1987   -4.2442    0.1471 C   0  0  3  0  0  0  0  0  0  0  0  0
   -2.1178   -4.5008   -2.3330 C   0  0  3  0  0  0  0  0  0  0  0  0
   -1.3817   -4.8000   -1.0234 C   0  0  3  0  0  0  0  0  0  0  0  0
   -1.4867   -4.4534    1.3683 O   0  0  0  0  0  0  0  0  0  0  0  0
   -3.3776   -5.1753   -2.3376 O   0  0  0  0  0  0  0  0  0  0  0  0
   -0.0949   -4.1790   -1.0457 O   0  0  0  0  0  0  0  0  0  0  0  0
   -3.1329   -2.6899   -3.7248 C   0  0  0  0  0  0  0  0  0  0  0  0
   -3.2457   -1.2752   -3.8920 O   0  0  0  0  0  0  0  0  0  0  0  0
    6.0642    7.4971   -0.1271 C   0  0  0  0  0  0  0  0  0  0  0  0
  3  1  2  0  0  0  0
  4  2  2  0  0  0  0
  5  3  1  0  0  0  0
  6  4  1  0  0  0  0
  6  5  2  0  0  0  0
  7  1  1  0  0  0  0
  2  1  1  0  0  0  0
  8  7  1  0  0  0  0
  9  2  1  0  0  0  0
 10  8  2  0  0  0  0
 10  9  1  0  0  0  0
  8 11  1  0  0  0  0
 13 12  1  0  0  0  0
 14 12  2  0  0  0  0
 11 13  2  0  0  0  0
 15 14  1  0  0  0  0
 16 11  1  0  0  0  0
 16 15  2  0  0  0  0
 16 17  1  0  0  0  0
 14 18  1  0  0  0  0
  9 19  2  0  0  0  0
  4 20  1  0  0  0  0
  5 21  1  0  0  0  0
 23 22  1  0  0  0  0
 24 22  1  0  0  0  0
 25 23  1  0  0  0  0
 26 24  1  0  0  0  0
 27 25  1  0  0  0  0
 27 26  1  0  0  0  0
 25 28  1  0  0  0  0
 26 29  1  0  0  0  0
 27 30  1  0  0  0  0
 24 31  1  0  0  0  0
 31 32  1  0  0  0  0
 21 23  1  0  0  0  0
 18 33  1  0  0  0  0
M  END
$$$$
