Untitled ACS Document 1996-1
  corina  03191016483D 1   1.00000     0.00000 
CORINA 3.46 0026  05.08.2008
 32 37  0  0  0  0  0  0  0  0999 V2000
   -0.0167    1.3798    0.0096 C   0  0  0  0  0  0  0  0  0  0  0  0
    0.0021   -0.0041    0.0020 C   0  0  0  0  0  0  0  0  0  0  0  0
    1.1522   -0.6521   -0.0120 N   0  0  0  0  0  0  0  0  0  0  0  0
    2.2974    0.0290   -0.0192 C   0  0  0  0  0  0  0  0  0  0  0  0
    2.2721    1.4278   -0.0120 C   0  0  0  0  0  0  0  0  0  0  0  0
    1.1163    2.0628    0.0025 N   0  0  0  0  0  0  0  0  0  0  0  0
    3.5843   -0.6876   -0.0344 C   0  0  0  0  0  0  0  0  0  0  0  0
    4.7469   -0.1296   -0.0419 N   0  0  0  0  0  0  0  0  0  0  0  0
    5.8100   -1.0303   -0.0555 N   0  0  0  0  0  0  0  0  0  0  0  0
    5.2731   -2.4004   -0.0573 C   0  0  0  0  0  0  0  0  0  0  0  0
    3.7461   -2.1910   -0.0369 C   0  0  0  0  0  0  0  0  0  0  0  0
    5.6960   -3.1339   -1.3039 C   0  0  0  0  0  0  0  0  0  0  0  0
    5.7398   -2.4682   -2.5144 C   0  0  0  0  0  0  0  0  0  0  0  0
    6.1267   -3.1371   -3.6611 C   0  0  0  0  0  0  0  0  0  0  0  0
    6.4716   -4.4771   -3.5990 C   0  0  0  0  0  0  0  0  0  0  0  0
    6.4280   -5.1479   -2.3788 C   0  0  0  0  0  0  0  0  0  0  0  0
    6.0449   -4.4701   -1.2333 C   0  0  0  0  0  0  0  0  0  0  0  0
    6.8794   -5.3525   -4.5637 O   0  0  0  0  0  0  0  0  0  0  0  0
    7.4763   -6.4547   -3.8551 C   0  0  0  0  0  0  0  0  0  0  0  0
    6.8084   -6.4434   -2.5796 O   0  0  0  0  0  0  0  0  0  0  0  0
    7.1529   -0.6913   -0.0661 C   0  0  0  0  0  0  0  0  0  0  0  0
    7.6210    0.5191   -0.0644 N   0  0  0  0  0  0  0  0  0  0  0  0
    8.9396    0.6538   -0.0758 C   0  0  0  0  0  0  0  0  0  0  0  0
    9.6369   -0.4964   -0.0878 C   0  0  0  0  0  0  0  0  0  0  0  0
    8.4915   -1.8355   -0.0762 S   0  0  0  0  0  0  0  0  0  0  0  0
    9.6008    1.9815   -0.0758 C   0  0  0  0  0  0  0  0  0  0  0  0
    8.8332    3.1449   -0.0631 C   0  0  0  0  0  0  0  0  0  0  0  0
    9.4531    4.3777   -0.0632 C   0  0  0  0  0  0  0  0  0  0  0  0
   10.8350    4.4602   -0.0759 C   0  0  0  0  0  0  0  0  0  0  0  0
   11.6020    3.3077   -0.0886 C   0  0  0  0  0  0  0  0  0  0  0  0
   10.9918    2.0700   -0.0828 C   0  0  0  0  0  0  0  0  0  0  0  0
   11.6088    6.0142   -0.0766 Cl  0  0  0  0  0  0  0  0  0  0  0  0
  1  2  2  0  0  0
  2  3  1  0  0  0
  3  4  2  0  0  0
  4  5  1  0  0  0
  5  6  2  0  0  0
  6  1  1  0  0  0
  4  7  1  0  0  0
  7  8  2  0  0  0
  8  9  1  0  0  0
  9 10  1  0  0  0
 10 11  1  0  0  0
 11  7  1  0  0  0
 10 12  1  0  0  0
 12 13  2  0  0  0
 13 14  1  0  0  0
 14 15  2  0  0  0
 15 16  1  0  0  0
 16 17  2  0  0  0
 17 12  1  0  0  0
 15 18  1  0  0  0
 18 19  1  0  0  0
 19 20  1  0  0  0
 20 16  1  0  0  0
  9 21  1  0  0  0
 21 22  2  0  0  0
 22 23  1  0  0  0
 23 24  2  0  0  0
 24 25  1  0  0  0
 25 21  1  0  0  0
 23 26  1  0  0  0
 26 27  2  0  0  0
 27 28  1  0  0  0
 28 29  2  0  0  0
 29 30  1  0  0  0
 30 31  2  0  0  0
 31 26  1  0  0  0
 29 32  1  0  0  0
M  END
$$$$
