
  corina  12080917093D 1   1.00000     0.00000 
CORINA 3.46 0026  05.08.2008
 26 27  0  0  0  0  0  0  0  0999 V2000
   -0.0159    1.3434    0.0128 C   0  0  0  0  0  0  0  0  0  0  0  0
    1.2788    2.1147    0.0081 C   0  0  0  0  0  0  0  0  0  0  0  0
    0.9831    3.5924    0.0105 C   0  0  0  0  0  0  0  0  0  0  0  0
    1.9955    4.4821    0.0071 N   0  0  0  0  0  0  0  0  0  0  0  0
    0.0025   -0.0043    0.0117 N   0  0  0  0  0  0  0  0  0  0  0  0
   -1.0746    1.9355    0.0227 O   0  0  0  0  0  0  0  0  0  0  0  0
   -1.2010   -0.7213    0.0160 N   0  0  0  0  0  0  0  0  0  0  0  0
   -0.1658    3.9810    0.0155 O   0  0  0  0  0  0  0  0  0  0  0  0
    1.7232    5.8513   -0.0886 C   0  0  0  0  0  0  0  0  0  0  0  0
    0.5932    6.3803    0.5212 C   0  0  0  0  0  0  0  0  0  0  0  0
    0.3304    7.7331    0.4298 C   0  0  0  0  0  0  0  0  0  0  0  0
    1.1909    8.5605   -0.2681 C   0  0  0  0  0  0  0  0  0  0  0  0
    2.3169    8.0369   -0.8765 C   0  0  0  0  0  0  0  0  0  0  0  0
    2.5854    6.6850   -0.7887 C   0  0  0  0  0  0  0  0  0  0  0  0
    0.8516   10.2858   -0.3829 S   0  0  3  0  0  0  0  0  0  0  0  0
    1.5879   11.0171    0.9075 N   0  0  0  0  0  0  0  0  0  0  0  0
    1.5243   10.7505   -1.5451 O   0  0  0  0  0  0  0  0  0  0  0  0
   -0.5476   10.4337   -0.1833 O   0  0  0  0  0  0  0  0  0  0  0  0
   -1.1833   -2.0188    0.0149 C   0  0  0  0  0  0  0  0  0  0  0  0
   -2.4502   -2.7736    0.0195 C   0  0  0  0  0  0  0  0  0  0  0  0
   -2.4346   -4.1705    0.0184 C   0  0  0  0  0  0  0  0  0  0  0  0
   -3.6228   -4.8703    0.0226 C   0  0  0  0  0  0  0  0  0  0  0  0
   -4.8299   -4.1912    0.0276 C   0  0  0  0  0  0  0  0  0  0  0  0
   -4.8523   -2.8065    0.0284 C   0  0  0  0  0  0  0  0  0  0  0  0
   -3.6711   -2.0948    0.0309 C   0  0  0  0  0  0  0  0  0  0  0  0
   -6.3213   -5.0797    0.0324 Cl  0  0  0  0  0  0  0  0  0  0  0  0
  5  7  1  4  0  0  0
 13 14  2  0  0  0  0
 14  9  1  0  0  0  0
  1  5  1  0  0  0  0
 12 15  1  0  0  0  0
  3  8  2  0  0  0  0
 15 16  1  0  0  0  0
  2  3  1  0  0  0  0
 15 17  2  0  0  0  0
  4  9  1  0  0  0  0
 15 18  2  0  0  0  0
  3  4  1  0  0  0  0
  7 19  2  0  0  0  0
  9 10  2  0  0  0  0
 19 20  1  0  0  0  0
  1  2  1  0  0  0  0
 20 21  2  0  0  0  0
 10 11  1  0  0  0  0
 21 22  1  0  0  0  0
  1  6  2  0  0  0  0
 22 23  2  0  0  0  0
 11 12  2  0  0  0  0
 23 24  1  0  0  0  0
 24 25  2  0  0  0  0
 25 20  1  0  0  0  0
 12 13  1  0  0  0  0
 23 26  1  0  0  0  0
M  END
$$$$
