m522.cdx
  corina  12080917093D 1   1.00000     0.00000 
CORINA 3.46 0026  05.08.2008
 21 23  0  0  0  0  0  0  0  0999 V2000
   -0.0188    1.5375    0.0105 C   0  0  0  0  0  0  0  0  0  0  0  0
    0.0021   -0.0041    0.0020 C   0  0  0  0  0  0  0  0  0  0  0  0
    1.3307   -0.3801    0.6463 C   0  0  0  0  0  0  0  0  0  0  0  0
    2.1625    0.6612    0.6474 C   0  0  0  0  0  0  0  0  0  0  0  0
    1.4863    1.8688   -0.0021 C   0  0  0  0  0  0  0  0  0  0  0  0
    2.0890   -1.7898    1.3905 S   0  0  0  0  0  0  0  0  0  0  0  0
    3.5673   -0.8946    1.6947 C   0  0  0  0  0  0  0  0  0  0  0  0
    3.4217    0.3929    1.2314 C   0  0  0  0  0  0  0  0  0  0  0  0
    4.6731   -1.3908    2.2894 N   0  0  0  0  0  0  0  0  0  0  0  0
    4.6973   -2.6357    2.6905 C   0  0  0  0  0  0  0  0  0  0  0  0
    5.8998   -3.1753    3.3372 C   0  0  0  0  0  0  0  0  0  0  0  0
    7.0267   -2.3591    3.5275 C   0  0  0  0  0  0  0  0  0  0  0  0
    8.1558   -2.8801    4.1392 C   0  0  0  0  0  0  0  0  0  0  0  0
    8.1719   -4.1961    4.5589 C   0  0  0  0  0  0  0  0  0  0  0  0
    7.0627   -5.0059    4.3736 C   0  0  0  0  0  0  0  0  0  0  0  0
    5.9286   -4.5052    3.7734 C   0  0  0  0  0  0  0  0  0  0  0  0
    7.0101   -1.0668    3.1141 O   0  0  0  0  0  0  0  0  0  0  0  0
    4.4811    1.3995    1.3344 C   0  0  0  0  0  0  0  0  0  0  0  0
    5.2937    1.5210    0.4377 O   0  0  0  0  0  0  0  0  0  0  0  0
    4.5552    2.1915    2.4238 O   0  0  0  0  0  0  0  0  0  0  0  0
    5.6307    3.1664    2.4580 C   0  0  0  0  0  0  0  0  0  0  0  0
  1  2  1  0      
  2  3  1  0      
  3  4  2  0      
  4  5  1  0      
  5  1  1  0      
  3  6  1  0      
  6  7  1  0      
  7  8  2  0      
  8  4  1  0      
  7  9  1  0      
  9 10  2  0      
 10 11  1  0      
 11 12  2  0      
 12 13  1  0      
 13 14  2  0      
 14 15  1  0      
 15 16  2  0      
 16 11  1  0      
 12 17  1  0      
  8 18  1  0      
 18 19  2  0      
 18 20  1  0      
 20 21  1  0      
M  STY  1   1 SUP
M  SLB  1   1   1
M  SAL   1  4  18  19  20  21
M  SBL   1  1  20
M  SMT   1 COOMe
M  SBV   1  20   -0.6674   -0.4849
M  END
$$$$
