
  corina  09251311463D 1   1.00000     0.00000 
CORINA 3.49 0023  12.04.2013
 19 20  0  0  0  0  0  0  0  0  1 V2000
   -0.0166    1.3762    0.0096 C   0  0  0  0  0  0  0  0  0  0  0  0
    0.0021   -0.0041    0.0020 C   0  0  0  0  0  0  0  0  0  0  0  0
    1.1817    2.0872    0.0020 C   0  0  0  0  0  0  0  0  0  0  0  0
    1.2072   -0.6820   -0.0127 C   0  0  0  0  0  0  0  0  0  0  0  0
    2.3940    1.3999   -0.0133 C   0  0  0  0  0  0  0  0  0  0  0  0
    2.4014    0.0188   -0.0198 C   0  0  0  0  0  0  0  0  0  0  0  0
    1.1672    3.5705    0.0096 C   0  0  0  0  0  0  0  0  0  0  0  0
    0.0084    4.2164    0.0237 N   0  0  0  0  0  0  0  0  0  0  0  0
    2.3704    4.2725    0.0077 C   0  0  0  0  0  0  0  0  0  0  0  0
   -0.0491    5.5323    0.0363 C   0  0  0  0  0  0  0  0  0  0  0  0
    2.3424    5.6562    0.0207 C   0  0  0  0  0  0  0  0  0  0  0  0
    1.1081    6.2940    0.0352 C   0  0  0  0  0  0  0  0  0  0  0  0
    1.0371    7.6431    0.0477 F   0  0  0  0  0  0  0  0  0  0  0  0
   -1.3910    6.2180    0.0515 C   0  0  0  0  0  0  0  0  0  0  0  0
   -1.3312    2.1130    0.0199 C   0  0  0  0  0  0  0  0  0  0  0  0
   -2.3829    1.1904    0.0198 F   0  0  0  0  0  0  0  0  0  0  0  0
   -1.4101    2.9101    1.1669 F   0  0  0  0  0  0  0  0  0  0  0  0
   -1.4209    2.9225   -1.1176 F   0  0  0  0  0  0  0  0  0  0  0  0
    3.9101   -0.8398   -0.0377 Cl  0  0  0  0  0  0  0  0  0  0  0  0
  2  1  1  0  0  0  0
  3  1  2  0  0  0  0
  4  2  2  0  0  0  0
  5  3  1  0  0  0  0
  6  4  1  0  0  0  0
  6  5  2  0  0  0  0
  8  7  1  0  0  0  0
  9  7  2  0  0  0  0
 10  8  2  0  0  0  0
 11  9  1  0  0  0  0
 12 10  1  0  0  0  0
 12 11  2  0  0  0  0
  3  7  1  0  0  0  0
 12 13  1  0  0  0  0
 10 14  1  0  0  0  0
  1 15  1  0  0  0  0
 15 16  1  0  0  0  0
 15 17  1  0  0  0  0
 15 18  1  0  0  0  0
  6 19  1  0  0  0  0
M  END
$$$$
