
  corina  02131209553D 1   1.00000     0.00000 
CORINA 3.49 0024  01.06.2011
 33 37  0  0  0  0  0  0  0  0  1 V2000
   -0.0235    1.2979   -0.0020 N   0  0  0  0  0  0  0  0  0  0  0  0
   -0.0279   -0.0970   -0.1128 N   0  0  0  0  0  0  0  0  0  0  0  0
    1.2599    1.7187    0.0301 C   0  0  0  0  0  0  0  0  0  0  0  0
    1.2055   -0.5237   -0.1479 C   0  0  0  0  0  0  0  0  0  0  0  0
    2.0624    0.5969   -0.0598 C   0  0  0  0  0  0  0  0  0  0  0  0
   -1.1574    2.1191    0.0592 C   0  0  0  0  0  0  0  0  0  0  0  0
    3.5342    0.5737   -0.0632 C   0  0  0  0  0  0  0  0  0  0  0  0
    4.2214    1.3848   -0.8992 C   0  0  0  0  0  0  0  0  0  0  0  0
    3.5332    2.2463   -1.7611 N   0  0  0  0  0  0  0  0  0  0  0  0
   -2.2964    1.7873   -0.6622 C   0  0  0  0  0  0  0  0  0  0  0  0
   -3.4125    2.5984   -0.5995 C   0  0  0  0  0  0  0  0  0  0  0  0
   -1.1461    3.2632    0.8459 C   0  0  0  0  0  0  0  0  0  0  0  0
   -3.3963    3.7402    0.1804 C   0  0  0  0  0  0  0  0  0  0  0  0
   -2.2654    4.0703    0.9045 C   0  0  0  0  0  0  0  0  0  0  0  0
    1.6403   -1.9621   -0.2622 C   0  0  0  0  0  0  0  0  0  0  0  0
    1.8008    3.3633    0.1594 Cl  0  0  0  0  0  0  0  0  0  0  0  0
    3.8037    3.5667   -1.7517 C   0  0  0  0  0  0  0  0  0  0  0  0
    3.0006    4.4915   -2.5790 C   0  0  0  0  0  0  0  0  0  0  0  0
    4.7082    3.9970   -1.0625 O   0  0  0  0  0  0  0  0  0  0  0  0
    5.6908    1.3616   -0.9026 C   0  0  0  0  0  0  0  0  0  0  0  0
    6.4368    0.5534   -0.1830 N   0  0  0  0  0  0  0  0  0  0  0  0
    6.4923    2.1762   -1.6617 N   0  0  0  0  0  0  0  0  0  0  0  0
    7.7453    0.7976   -0.4338 C   0  0  0  0  0  0  0  0  0  0  0  0
    7.8020    1.8362   -1.3807 C   0  0  0  0  0  0  0  0  0  0  0  0
    8.9352    0.2409    0.0477 C   0  0  0  0  0  0  0  0  0  0  0  0
   10.1369    0.7083   -0.4034 C   0  0  0  0  0  0  0  0  0  0  0  0
    9.0326    2.2965   -1.8272 C   0  0  0  0  0  0  0  0  0  0  0  0
   10.1925    1.7329   -1.3376 C   0  0  0  0  0  0  0  0  0  0  0  0
    1.4961    6.2243   -4.1290 C   0  0  0  0  0  0  0  0  0  0  0  0
    2.5248    6.7173   -3.3460 C   0  0  0  0  0  0  0  0  0  0  0  0
    1.2194    4.8687   -4.1455 C   0  0  0  0  0  0  0  0  0  0  0  0
    3.2781    5.8596   -2.5715 C   0  0  0  0  0  0  0  0  0  0  0  0
    1.9651    4.0001   -3.3757 C   0  0  0  0  0  0  0  0  0  0  0  0
  2  1  1  0  0  0  0
  3  1  1  0  0  0  0
  4  2  2  0  0  0  0
  5  3  2  0  0  0  0
  5  4  1  0  0  0  0
  1  6  1  0  0  0  0
  5  7  1  0  0  0  0
  7  8  2  0  0  0  0
  9  8  1  0  0  0  0
  6 10  1  0  0  0  0
 11 10  2  0  0  0  0
 12  6  2  0  0  0  0
 13 11  1  0  0  0  0
 14 12  1  0  0  0  0
 14 13  2  0  0  0  0
  4 15  1  0  0  0  0
  3 16  1  0  0  0  0
  9 17  1  0  0  0  0
 17 18  1  0  0  0  0
 17 19  2  0  0  0  0
 21 20  2  0  0  0  0
 22 20  1  0  0  0  0
 23 21  1  0  0  0  0
 24 22  1  0  0  0  0
  8 20  1  0  0  0  0
 25 23  1  0  0  0  0
 24 23  2  0  0  0  0
 26 25  2  0  0  0  0
 27 24  1  0  0  0  0
 28 26  1  0  0  0  0
 28 27  2  0  0  0  0
 30 29  1  0  0  0  0
 31 29  2  0  0  0  0
 32 30  2  0  0  0  0
 33 31  1  0  0  0  0
 18 32  1  0  0  0  0
 18 33  2  0  0  0  0
M  END
$$$$
