
  corina  04301013283D 1   1.00000     0.00000 
CORINA 3.46 0026  05.08.2008
 37 38  0  0  0  0  0  0  0  0  1 V2000
   -0.0258    1.5062   -0.0341 C   0  0  0  0  0  0  0  0  0  0  0  0
    1.0539   -0.5872   -0.0941 O   0  0  0  0  0  0  0  0  0  0  0  0
   -0.0011   -0.0006   -0.0418 C   0  0  0  0  0  0  0  0  0  0  0  0
   -1.1516   -0.6913    0.0093 O   0  0  0  0  0  0  0  0  0  0  0  0
   -0.1536   -4.9209    1.9291 O   0  0  0  0  0  0  0  0  0  0  0  0
   -0.4010   -6.9812    0.5403 N   0  0  0  0  0  0  0  0  0  0  0  0
   -0.7971   -6.2615   -0.4731 C   0  0  0  0  0  0  0  0  0  0  0  0
   -0.8936   -4.8016   -0.3440 C   0  0  0  0  0  0  0  0  0  0  0  0
   -0.5601   -4.1770    0.8693 C   0  0  0  0  0  0  0  0  0  0  0  0
   -1.3121   -4.0260   -1.4309 C   0  0  0  0  0  0  0  0  0  0  0  0
   -0.6485   -2.8007    0.9799 C   0  0  0  0  0  0  0  0  0  0  0  0
   -1.3963   -2.6579   -1.3065 C   0  0  0  0  0  0  0  0  0  0  0  0
   -1.0655   -2.0418   -0.1042 C   0  0  0  0  0  0  0  0  0  0  0  0
    0.8948  -10.3874    0.7816 C   0  0  0  0  0  0  0  0  0  0  0  0
   -0.1298  -11.0944    0.1773 C   0  0  0  0  0  0  0  0  0  0  0  0
    0.8111   -9.0162    0.9058 C   0  0  0  0  0  0  0  0  0  0  0  0
   -1.2445  -10.4325   -0.3062 C   0  0  0  0  0  0  0  0  0  0  0  0
   -0.3112   -8.3416    0.4200 C   0  0  0  0  0  0  0  0  0  0  0  0
   -1.3415   -9.0616   -0.1887 C   0  0  0  0  0  0  0  0  0  0  0  0
    1.4065    2.0401   -0.0992 C   0  0  0  0  0  0  0  0  0  0  0  0
    1.3814    3.5699   -0.0914 C   0  0  0  0  0  0  0  0  0  0  0  0
    2.8137    4.1038   -0.1565 C   0  0  0  0  0  0  0  0  0  0  0  0
    2.7886    5.6336   -0.1487 C   0  0  0  0  0  0  0  0  0  0  0  0
    4.2210    6.1675   -0.2138 C   0  0  0  0  0  0  0  0  0  0  0  0
    4.1959    7.6973   -0.2060 C   0  0  0  0  0  0  0  0  0  0  0  0
    5.6282    8.2312   -0.2711 C   0  0  0  0  0  0  0  0  0  0  0  0
    5.6031    9.7609   -0.2633 C   0  0  0  0  0  0  0  0  0  0  0  0
    7.0354   10.2949   -0.3284 C   0  0  0  0  0  0  0  0  0  0  0  0
    7.0103   11.8246   -0.3206 C   0  0  0  0  0  0  0  0  0  0  0  0
    8.4427   12.3585   -0.3857 C   0  0  0  0  0  0  0  0  0  0  0  0
    8.4176   13.8883   -0.3779 C   0  0  0  0  0  0  0  0  0  0  0  0
    9.8499   14.4222   -0.4430 C   0  0  0  0  0  0  0  0  0  0  0  0
    9.8248   15.9520   -0.4351 C   0  0  0  0  0  0  0  0  0  0  0  0
   11.2571   16.4859   -0.5003 C   0  0  0  0  0  0  0  0  0  0  0  0
   11.2320   18.0157   -0.4924 C   0  0  0  0  0  0  0  0  0  0  0  0
   -0.0310  -12.5924    0.0453 C   0  0  0  0  0  0  0  0  0  0  0  0
   -0.6450  -13.2548    1.2803 C   0  0  0  0  0  0  0  0  0  0  0  0
  3  4  1  0  0  0  0
  2  3  2  0  0  0  0
  1  3  1  0  0  0  0
  9  8  1  0  0  0  0
 10  8  2  0  0  0  0
 11  9  2  0  0  0  0
 12 10  1  0  0  0  0
 13 11  1  0  0  0  0
 13 12  2  0  0  0  0
  7  8  1  0  0  0  0
  6  7  2  0  0  0  0
  5  9  1  0  0  0  0
 15 14  1  0  0  0  0
 16 14  2  0  0  0  0
 17 15  2  0  0  0  0
 18 16  1  0  0  0  0
 19 17  1  0  0  0  0
 19 18  2  0  0  0  0
  6 18  1  0  0  0  0
  4 13  1  0  0  0  0
 20  1  1  0  0  0  0
 21 20  1  0  0  0  0
 22 21  1  0  0  0  0
 23 22  1  0  0  0  0
 24 23  1  0  0  0  0
 25 24  1  0  0  0  0
 26 25  1  0  0  0  0
 27 26  1  0  0  0  0
 28 27  1  0  0  0  0
 29 28  1  0  0  0  0
 30 29  1  0  0  0  0
 31 30  1  0  0  0  0
 32 31  1  0  0  0  0
 33 32  1  0  0  0  0
 34 33  1  0  0  0  0
 35 34  1  0  0  0  0
 36 15  1  0  0  0  0
 37 36  1  0  0  0  0
M  END
$$$$
