
  corina  12080917083D 1   1.00000     0.00000 
CORINA 3.46 0026  05.08.2008
 21 23  0  0  0  0  0  0  0  0999 V2000
   -0.0120    1.3271   -0.0721 N   0  0  0  0  0  0  0  0  0  0  0  0
    1.1351    1.9865   -0.0462 C   0  0  0  0  0  0  0  0  0  0  0  0
    2.3000    1.3438   -0.0318 N   0  0  0  0  0  0  0  0  0  0  0  0
    2.3676    0.0569   -0.0423 N   0  0  0  0  0  0  0  0  0  0  0  0
    0.0082   -0.0076   -0.0838 C   0  0  0  0  0  0  0  0  0  0  0  0
    1.2577   -0.6670   -0.0681 C   0  0  0  0  0  0  0  0  0  0  0  0
    0.9875   -2.0127   -0.0850 N   0  0  3  0  0  0  0  0  0  0  0  0
   -0.4031   -2.1768   -0.1106 N   0  0  0  0  0  0  0  0  0  0  0  0
   -0.9858   -1.0113   -0.1098 C   0  0  0  0  0  0  0  0  0  0  0  0
   -2.4737   -0.7734   -0.1327 C   0  0  0  0  0  0  0  0  0  0  0  0
    1.9369   -3.0421   -0.0785 C   0  0  0  0  0  0  0  0  0  0  0  0
    1.1228    3.3734   -0.0343 N   0  0  0  0  0  0  0  0  0  0  0  0
    2.3296    4.0845   -0.0069 N   0  0  0  0  0  0  0  0  0  0  0  0
    2.3218    5.3620   -0.0888 C   0  0  0  0  0  0  0  0  0  0  0  0
    1.0137    6.1101   -0.0731 C   0  0  0  0  0  0  0  0  0  0  0  0
    3.6207    6.1178   -0.2011 C   0  0  0  0  0  0  0  0  0  0  0  0
    1.6736   -4.2273    0.5957 C   0  0  0  0  0  0  0  0  0  0  0  0
    2.6118   -5.2408    0.5998 C   0  0  0  0  0  0  0  0  0  0  0  0
    3.8123   -5.0764   -0.0665 C   0  0  0  0  0  0  0  0  0  0  0  0
    4.0777   -3.8972   -0.7384 C   0  0  0  0  0  0  0  0  0  0  0  0
    3.1413   -2.8821   -0.7511 C   0  0  0  0  0  0  0  0  0  0  0  0
  9 10  1  0  0  0  0
  5  6  1  0  0  0  0
  7 11  1  0  0  0  0
  2 12  1  0  0  0  0
  6  4  2  0  0  0  0
 12 13  1  0  0  0  0
  5  1  2  0  0  0  0
 13 14  2  0  0  0  0
  1  2  1  0  0  0  0
 14 15  1  0  0  0  0
  2  3  2  0  0  0  0
 14 16  1  0  0  0  0
  6  7  1  0  0  0  0
 11 17  2  0  0  0  0
  7  8  1  0  0  0  0
 17 18  1  0  0  0  0
  8  9  2  0  0  0  0
 18 19  2  0  0  0  0
  9  5  1  0  0  0  0
 19 20  1  0  0  0  0
  3  4  1  0  0  0  0
 20 21  2  0  0  0  0
 21 11  1  0  0  0  0
M  END
$$$$
