
  corina  03301013243D 1   1.00000     0.00000 
CORINA 3.46 0026  05.08.2008
 19 21  0  0  0  0  0  0  0  0999 V2000
   -0.0168    1.3855    0.0097 C   0  0  0  0  0  0  0  0  0  0  0  0
    1.1792    2.0934    0.0020 C   0  0  0  0  0  0  0  0  0  0  0  0
    2.3814    1.4143   -0.0131 C   0  0  0  0  0  0  0  0  0  0  0  0
    2.3962    0.0313   -0.0211 C   0  0  0  0  0  0  0  0  0  0  0  0
    1.2080   -0.6764   -0.0136 C   0  0  0  0  0  0  0  0  0  0  0  0
    0.0021   -0.0041    0.0020 C   0  0  0  0  0  0  0  0  0  0  0  0
   -4.5172    6.4913    0.0561 C   0  0  0  0  0  0  0  0  0  0  0  0
   -3.9336    6.0763    1.2790 C   0  0  0  0  0  0  0  0  0  0  0  0
   -2.7933    5.2552    1.2547 C   0  0  0  0  0  0  0  0  0  0  0  0
   -2.2665    4.8697    0.0605 C   0  0  0  0  0  0  0  0  0  0  0  0
   -2.8406    5.2777   -1.1423 C   0  0  0  0  0  0  0  0  0  0  0  0
   -3.9445    6.0736   -1.1574 C   0  0  0  0  0  0  0  0  0  0  0  0
   -6.1811    7.7022    1.2747 C   0  0  0  0  0  0  0  0  0  0  0  0
   -5.6097    7.2905    2.4774 C   0  0  0  0  0  0  0  0  0  0  0  0
   -4.5059    6.4947    2.4926 C   0  0  0  0  0  0  0  0  0  0  0  0
   -5.6541    7.3172    0.0805 C   0  0  0  0  0  0  0  0  0  0  0  0
   -6.2206    7.7372    3.7806 C   0  0  0  0  0  0  0  0  0  0  0  0
   -1.0440    3.9888    0.0382 C   0  0  0  0  0  0  0  0  0  0  0  0
   -1.5532    2.2478    0.0363 S   0  0  0  0  0  0  0  0  0  0  0  0
  9 10  2  0  0  0  0
  2  3  1  0  0  0  0
 10 11  1  0  0  0  0
  5  6  2  0  0  0  0
 11 12  2  0  0  0  0
 12  7  1  0  0  0  0
  6  1  1  0  0  0  0
  1  2  2  0  0  0  0
 13 14  1  0  0  0  0
  3  4  2  0  0  0  0
 14 15  2  0  0  0  0
 15  8  1  0  0  0  0
  7  8  2  0  0  0  0
  7 16  1  0  0  0  0
 16 13  2  0  0  0  0
 14 17  1  0  0  0  0
  8  9  1  0  0  0  0
 10 18  1  0  0  0  0
  4  5  1  0  0  0  0
 18 19  1  0  0  0  0
 19  1  1  0  0  0  0
M  END
$$$$
