m368.cdx
  corina  12080917083D 1   1.00000     0.00000 
CORINA 3.46 0026  05.08.2008
 18 19  0  0  0  0  0  0  0  0999 V2000
   -0.0169    1.3944    0.0097 C   0  0  0  0  0  0  0  0  0  0  0  0
    0.0021   -0.0041    0.0020 C   0  0  0  0  0  0  0  0  0  0  0  0
    1.1995   -0.6718   -0.0130 C   0  0  0  0  0  0  0  0  0  0  0  0
    2.3957    0.0407   -0.0201 C   0  0  0  0  0  0  0  0  0  0  0  0
    2.3804    1.4330   -0.0120 C   0  0  0  0  0  0  0  0  0  0  0  0
    1.1865    2.1070    0.0020 C   0  0  0  0  0  0  0  0  0  0  0  0
    3.6080   -0.6394   -0.0349 N   0  0  0  0  0  0  0  0  0  0  0  0
    4.8676    0.1087   -0.0424 C   0  0  0  0  0  0  0  0  0  0  0  0
    5.9926   -0.8295   -0.0578 N   0  0  0  0  0  0  0  0  0  0  0  0
    6.6155   -1.3508   -1.1991 N   0  0  0  0  0  0  0  0  0  0  0  0
    7.5756   -2.1508   -0.8115 C   0  0  0  0  0  0  0  0  0  0  0  0
    7.5949   -2.1645    0.5869 C   0  0  0  0  0  0  0  0  0  0  0  0
    6.6158   -1.3397    1.0250 C   0  0  0  0  0  0  0  0  0  0  0  0
    6.2754   -1.0506    2.4644 C   0  0  0  0  0  0  0  0  0  0  0  0
    8.5004   -2.9241   -1.7158 C   0  0  0  0  0  0  0  0  0  0  0  0
   -1.3022    2.1155    0.0197 C   0  0  0  0  0  0  0  0  0  0  0  0
   -1.3188    3.4630    0.0271 O   0  0  0  0  0  0  0  0  0  0  0  0
   -2.3470    1.4950    0.0213 O   0  0  0  0  0  0  0  0  0  0  0  0
  1  2  2  0  0  0
  2  3  1  0  0  0
  3  4  2  0  0  0
  4  5  1  0  0  0
  5  6  2  0  0  0
  6  1  1  0  0  0
  4  7  1  0  0  0
  7  8  1  0  0  0
  8  9  1  0  0  0
  9 10  1  0  0  0
 10 11  2  0  0  0
 11 12  1  0  0  0
 12 13  2  0  0  0
 13  9  1  0  0  0
 13 14  1  0  0  0
 11 15  1  0  0  0
  1 16  1  0  0  0
 16 17  1  0  0  0
 16 18  2  0  0  0
M  END
$$$$
