m533.cdx
  corina  12080917093D 1   1.00000     0.00000 
CORINA 3.46 0026  05.08.2008
 19 21  0  0  0  0  0  0  0  0999 V2000
   -0.0189    1.5457    0.0105 C   0  0  0  0  0  0  0  0  0  0  0  0
    0.0021   -0.0041    0.0020 C   0  0  0  0  0  0  0  0  0  0  0  0
    1.5261   -0.3278   -0.0154 C   0  0  0  0  0  0  0  0  0  0  0  0
    2.0072    0.0277   -1.4533 C   0  0  0  0  0  0  0  0  0  0  0  0
    1.9876    1.5865   -1.4434 C   0  0  0  0  0  0  0  0  0  0  0  0
    1.4956    1.9113   -0.0020 C   0  0  0  0  0  0  0  0  0  0  0  0
    3.4791   -0.2992   -1.5602 C   0  0  0  0  0  0  0  0  0  0  0  0
    4.1863    0.8354   -1.6030 N   0  0  0  0  0  0  0  0  0  0  0  0
    3.4510    1.9513   -1.5441 C   0  0  0  0  0  0  0  0  0  0  0  0
    2.0664    0.7947    0.7554 O   0  0  0  0  0  0  0  0  0  0  0  0
    3.8905    3.0808   -1.5677 O   0  0  0  0  0  0  0  0  0  0  0  0
    3.9464   -1.4170   -1.6008 O   0  0  0  0  0  0  0  0  0  0  0  0
    5.5838    0.8535   -1.7013 N   0  0  0  0  0  0  0  0  0  0  0  0
    6.1740    0.8693   -2.9128 C   0  0  0  0  0  0  0  0  0  0  0  0
    6.3379    0.8551   -0.5842 C   0  0  0  0  0  0  0  0  0  0  0  0
    5.6779    0.8375    0.7705 C   0  0  0  0  0  0  0  0  0  0  0  0
    7.5470    0.8708   -0.6692 O   0  0  0  0  0  0  0  0  0  0  0  0
    7.3832    0.8850   -2.9978 O   0  0  0  0  0  0  0  0  0  0  0  0
    5.3308    0.8675   -4.1618 C   0  0  0  0  0  0  0  0  0  0  0  0
  1  2  1  0      
  2  3  1  0      
  3  4  1  0      
  4  5  1  0      
  5  6  1  0      
  6  1  1  0      
  4  7  1  0      
  7  8  1  0      
  8  9  1  0      
  9  5  1  0      
  6 10  1  0      
 10  3  1  0      
  9 11  2  0      
  7 12  2  0      
  8 13  1  0      
 13 14  1  0      
 13 15  1  0      
 15 16  1  0      
 15 17  2  0      
 14 18  2  0      
 14 19  1  0      
M  END
$$$$
