m361.cdx
  corina  12080917083D 1   1.00000     0.00000 
CORINA 3.46 0026  05.08.2008
 24 25  0  0  0  0  0  0  0  0999 V2000
    0.4597    1.1958    1.6921 C   0  0  0  0  0  0  0  0  0  0  0  0
    0.0992    0.0632    0.9720 C   0  0  0  0  0  0  0  0  0  0  0  0
    0.9011   -0.3871   -0.0786 C   0  0  0  0  0  0  0  0  0  0  0  0
    2.0557    0.2919   -0.4058 C   0  0  0  0  0  0  0  0  0  0  0  0
    2.4217    1.4361    0.3202 C   0  0  0  0  0  0  0  0  0  0  0  0
    1.6099    1.8811    1.3741 C   0  0  0  0  0  0  0  0  0  0  0  0
    3.6454    2.1614   -0.0206 C   0  0  0  0  0  0  0  0  0  0  0  0
    3.6273    3.5394   -0.1173 C   0  0  0  0  0  0  0  0  0  0  0  0
    4.8746    4.3205   -0.2374 C   0  0  0  0  0  0  0  0  0  0  0  0
    4.7788    5.6630   -0.3280 N   0  0  0  0  0  0  0  0  0  0  0  0
    3.5913    6.2840   -0.3104 C   0  0  0  0  0  0  0  0  0  0  0  0
    2.4203    5.6408   -0.2040 N   0  0  0  0  0  0  0  0  0  0  0  0
    2.3596    4.2963   -0.1114 C   0  0  0  0  0  0  0  0  0  0  0  0
    5.9585    3.7686   -0.2537 O   0  0  0  0  0  0  0  0  0  0  0  0
    6.0016    6.4609   -0.4480 C   0  0  0  0  0  0  0  0  0  0  0  0
    6.3530    6.6363   -1.9268 C   0  0  0  0  0  0  0  0  0  0  0  0
    3.5689    7.9917   -0.4297 S   0  0  0  0  0  0  0  0  0  0  0  0
    1.1769    6.4155   -0.1939 C   0  0  0  0  0  0  0  0  0  0  0  0
    0.6692    6.5838   -1.6274 C   0  0  0  0  0  0  0  0  0  0  0  0
    1.2904    3.7241   -0.0156 O   0  0  0  0  0  0  0  0  0  0  0  0
    0.5434   -1.4963   -0.7793 O   0  0  0  0  0  0  0  0  0  0  0  0
    1.4101   -1.9004   -1.8411 C   0  0  0  0  0  0  0  0  0  0  0  0
   -1.0364   -0.6080    1.2914 O   0  0  0  0  0  0  0  0  0  0  0  0
   -1.8103   -0.0938    2.3771 C   0  0  0  0  0  0  0  0  0  0  0  0
  1  2  2  0  0  0
  2  3  1  0  0  0
  3  4  2  0  0  0
  4  5  1  0  0  0
  5  6  2  0  0  0
  6  1  1  0  0  0
  5  7  1  0  0  0
  7  8  2  0  0  0
  8  9  1  0  0  0
  9 10  1  0  0  0
 10 11  1  0  0  0
 11 12  1  0  0  0
 12 13  1  0  0  0
 13  8  1  0  0  0
  9 14  2  0  0  0
 10 15  1  0  0  0
 15 16  1  0  0  0
 11 17  2  0  0  0
 12 18  1  0  0  0
 18 19  1  0  0  0
 13 20  2  0  0  0
  3 21  1  0  0  0
 21 22  1  0  0  0
  2 23  1  0  0  0
 23 24  1  0  0  0
M  END
$$$$
