untitled.mol
  corina  08281209523D 1   1.00000     0.00000 
CORINA 3.49 0024  01.06.2011
 24 24  0  0  0  0  0  0  0  0999 V2000
   -0.0170    1.3991    0.0097 C   0  0  0  0  0  0  0  0  0  0  0  0
    1.1891    2.1164    0.0021 C   0  0  0  0  0  0  0  0  0  0  0  0
    2.4143    1.4294   -0.0133 C   0  0  0  0  0  0  0  0  0  0  0  0
    2.4324    0.0279   -0.0215 C   0  0  0  0  0  0  0  0  0  0  0  0
    1.2282   -0.6894   -0.0138 C   0  0  0  0  0  0  0  0  0  0  0  0
    0.0021   -0.0041    0.0020 C   0  0  0  0  0  0  0  0  0  0  0  0
    1.2478   -2.1212   -0.0227 C   0  0  0  0  0  0  0  0  0  0  0  0
   -1.2684   -0.7611    0.0106 C   0  0  0  0  0  0  0  0  0  0  0  0
   -1.3066    2.1210    0.0321 C   0  0  0  0  0  0  0  0  0  0  0  0
    1.1703    3.5952    0.0097 C   0  0  0  0  0  0  0  0  0  0  0  0
    3.6452    2.1612   -0.0211 C   0  0  0  0  0  0  0  0  0  0  0  0
    4.6216    2.7417   -0.0273 N   0  0  0  0  0  0  0  0  0  0  0  0
    1.2634   -3.2571   -0.0297 N   0  0  0  0  0  0  0  0  0  0  0  0
    3.6135   -0.6333   -0.0372 O   0  0  0  0  0  0  0  0  0  0  0  0
    3.9656   -0.8304    0.8416 H   0  0  0  0  0  0  0  0  0  0  0  0
   -1.8214    2.4121    1.0929 O   0  0  0  0  0  0  0  0  0  0  0  0
   -1.8005   -1.0663   -1.0375 O   0  0  0  0  0  0  0  0  0  0  0  0
    1.1724    4.1971    1.0645 O   0  0  0  0  0  0  0  0  0  0  0  0
   -1.9111    2.4562   -1.1243 O   0  0  0  0  0  0  0  0  0  0  0  0
   -1.8355   -1.1122    1.1810 O   0  0  0  0  0  0  0  0  0  0  0  0
    1.1508    4.2746   -1.1534 O   0  0  0  0  0  0  0  0  0  0  0  0
   -3.1751    3.1640   -1.0264 C   0  0  0  0  0  0  0  0  0  0  0  0
   -3.0818   -1.8540    1.1134 C   0  0  0  0  0  0  0  0  0  0  0  0
    1.1331    5.7241   -1.0699 C   0  0  0  0  0  0  0  0  0  0  0  0
  1  6  1  0      
  1  2  2  0      
  2  3  1  0      
  3  4  2  0      
  4  5  1  0      
  5  6  2  0      
  5  7  1  0      
  6  8  1  0      
  1  9  1  0      
  2 10  1  0      
  3 11  1  0      
 11 12  3  0      
  7 13  3  0      
  4 14  1  0      
 14 15  1  0      
  9 16  2  0      
  8 17  2  0      
 10 18  2  0      
  9 19  1  0      
  8 20  1  0      
 10 21  1  0      
 19 22  1  0      
 20 23  1  0      
 21 24  1  0      
M  END
$$$$
