
  corina  12080917083D 1   1.00000     0.00000 
CORINA 3.46 0026  05.08.2008
 17 18  0  0  0  0  0  0  0  0999 V2000
   -0.0187    1.5258    0.0104 C   0  0  3  0  0  0  0  0  0  0  0  0
   -0.6287    2.0505    1.3329 C   0  0  0  0  0  0  0  0  0  0  0  0
   -0.0293    3.4745    1.4441 C   0  0  0  0  0  0  0  0  0  0  0  0
    1.4199    2.0839   -0.0003 C   0  0  3  0  0  0  0  0  0  0  0  0
    1.4176    3.3127    0.9405 C   0  0  3  0  0  0  0  0  0  0  0  0
    1.7664    4.5001    0.0137 C   0  0  0  0  0  0  0  0  0  0  0  0
    2.4643    3.7901   -1.1742 C   0  0  3  0  0  0  0  0  0  0  0  0
    1.7139    2.5665   -1.3229 O   0  0  0  0  0  0  0  0  0  0  0  0
    2.4409    1.0375    0.4507 C   0  0  0  0  0  0  0  0  0  0  0  0
    0.0021   -0.0041    0.0020 C   0  0  0  0  0  0  0  0  0  0  0  0
   -0.8056    2.0546   -1.1904 C   0  0  0  0  0  0  0  0  0  0  0  0
    2.3661    4.6398   -2.4427 C   0  0  3  0  0  0  0  0  0  0  0  0
    3.0517    3.9265   -3.5795 C   0  0  0  0  0  0  0  0  0  0  0  0
    0.8939    4.8629   -2.7945 C   0  0  0  0  0  0  0  0  0  0  0  0
    3.0441    5.9907   -2.2054 C   0  0  0  0  0  0  0  0  0  0  0  0
    3.5658    2.8496   -3.3941 O   0  0  0  0  0  0  0  0  0  0  0  0
    3.0958    4.5570   -4.9475 C   0  0  0  0  0  0  0  0  0  0  0  0
  8  4  1  0  0  0  0
  4  5  1  0  0  0  0
  4  9  1  0  0  0  0
  1 10  1  0  0  0  0
  4  1  1  0  0  0  0
  1 11  1  0  0  0  0
  1  2  1  0  0  0  0
  7 12  1  0  0  0  0
  2  3  1  0  0  0  0
 12 13  1  0  0  0  0
  3  5  1  0  0  0  0
 12 14  1  0  0  0  0
  5  6  1  0  0  0  0
 12 15  1  0  0  0  0
  6  7  1  0  0  0  0
 13 16  2  0  0  0  0
  7  8  1  0  0  0  0
 13 17  1  0  0  0  0
M  END
$$$$
