Untitled Document-2
  corina  01301405153D 1   1.00000     0.00000 
CORINA 3.49 0023  12.04.2013
 60 67  0  0  0  0  0  0  0  0999 V2000
    0.0741    0.8117   -1.2424 C   0  0  0  0  0  0  0  0  0  0  0  0
    0.4091    2.1621   -1.0342 C   0  0  0  0  0  0  0  0  0  0  0  0
    1.6740    2.5116   -0.6975 C   0  0  0  0  0  0  0  0  0  0  0  0
    2.6861    1.5349   -0.5470 C   0  0  0  0  0  0  0  0  0  0  0  0
    2.3713    0.1963   -0.7486 C   0  0  0  0  0  0  0  0  0  0  0  0
    1.0749   -0.1853   -1.0958 C   0  0  0  0  0  0  0  0  0  0  0  0
    0.7364   -1.5350   -1.3046 C   0  0  0  0  0  0  0  0  0  0  0  0
   -0.5395   -1.8657   -1.6427 C   0  0  0  0  0  0  0  0  0  0  0  0
   -1.5204   -0.8862   -1.7866 C   0  0  0  0  0  0  0  0  0  0  0  0
   -1.2292    0.4307   -1.5978 C   0  0  0  0  0  0  0  0  0  0  0  0
    3.9997    1.6657   -0.2202 N   0  3  0  0  0  0  0  0  0  0  0  0
    4.6473    0.5286   -0.1724 C   0  0  0  0  0  0  0  0  0  0  0  0
    3.6554   -0.5655   -0.5131 C   0  0  0  0  0  0  0  0  0  0  0  0
    3.4999   -1.5378    0.6580 C   0  0  0  0  0  0  0  0  0  0  0  0
    4.0837   -1.3078   -1.7805 C   0  0  0  0  0  0  0  0  0  0  0  0
    6.0029    0.3559    0.1349 C   0  0  0  0  0  0  0  0  0  0  0  0
    4.6317    2.9589    0.0526 C   0  0  0  0  0  0  0  0  0  0  0  0
    4.6364    3.8035   -1.2231 C   0  0  0  0  0  0  0  0  0  0  0  0
    5.2965    5.1541   -0.9382 C   0  0  0  0  0  0  0  0  0  0  0  0
    5.3011    5.9860   -2.1948 C   0  0  0  0  0  0  0  0  0  0  0  0
    4.2381    6.8250   -2.4721 C   0  0  0  0  0  0  0  0  0  0  0  0
    4.2423    7.5881   -3.6248 C   0  0  0  0  0  0  0  0  0  0  0  0
    5.3098    7.5124   -4.4998 C   0  0  0  0  0  0  0  0  0  0  0  0
    6.3732    6.6741   -4.2220 C   0  0  0  0  0  0  0  0  0  0  0  0
    6.3709    5.9143   -3.0672 C   0  0  0  0  0  0  0  0  0  0  0  0
    6.5605   -0.9036    0.1071 C   0  0  0  0  0  0  0  0  0  0  0  0
    7.9370   -1.0633    0.2973 C   0  0  0  0  0  0  0  0  0  0  0  0
    8.8003    0.1480    0.5316 C   0  0  0  0  0  0  0  0  0  0  0  0
   10.2087   -0.1191   -0.0064 C   0  0  0  0  0  0  0  0  0  0  0  0
   10.7791   -1.3601    0.6864 C   0  0  0  0  0  0  0  0  0  0  0  0
    9.8564   -2.5276    0.4511 C   0  0  0  0  0  0  0  0  0  0  0  0
    8.4834   -2.3253    0.2734 C   0  0  0  0  0  0  0  0  0  0  0  0
    7.4502   -3.6942    0.0048 Cl  0  0  0  0  0  0  0  0  0  0  0  0
   10.3634   -3.7939    0.4159 C   0  0  0  0  0  0  0  0  0  0  0  0
   11.7423   -4.0049    0.5991 C   0  0  0  0  0  0  0  0  0  0  0  0
   12.2451   -5.2606    0.5642 C   0  0  0  0  0  0  0  0  0  0  0  0
   13.5549   -5.6222    0.7247 N   0  0  0  0  0  0  0  0  0  0  0  0
   13.7273   -7.0024    0.6316 C   0  0  0  0  0  0  0  0  0  0  0  0
   12.5198   -7.6247    0.4017 C   0  0  0  0  0  0  0  0  0  0  0  0
   11.4677   -6.5414    0.3465 C   0  0  0  0  0  0  0  0  0  0  0  0
   14.8983   -7.7767    0.7360 C   0  0  0  0  0  0  0  0  0  0  0  0
   14.8621   -9.1274    0.6140 C   0  0  0  0  0  0  0  0  0  0  0  0
   13.6413   -9.7835    0.3793 C   0  0  0  0  0  0  0  0  0  0  0  0
   12.4522   -9.0179    0.2728 C   0  0  0  0  0  0  0  0  0  0  0  0
   13.5751  -11.1804    0.2491 C   0  0  0  0  0  0  0  0  0  0  0  0
   12.3743  -11.7801    0.0222 C   0  0  0  0  0  0  0  0  0  0  0  0
   11.2054  -11.0284   -0.0834 C   0  0  0  0  0  0  0  0  0  0  0  0
   11.2305   -9.6733    0.0379 C   0  0  0  0  0  0  0  0  0  0  0  0
   10.4321   -6.7432    1.4545 C   0  0  0  0  0  0  0  0  0  0  0  0
   10.7901   -6.5217   -1.0251 C   0  0  0  0  0  0  0  0  0  0  0  0
   14.6448   -4.6733    0.9654 C   0  0  0  0  0  0  0  0  0  0  0  0
   14.8162   -4.4649    2.4714 C   0  0  0  0  0  0  0  0  0  0  0  0
   15.9545   -3.4738    2.7228 C   0  0  0  0  0  0  0  0  0  0  0  0
   16.1234   -3.2686    4.2062 C   0  0  0  0  0  0  0  0  0  0  0  0
   16.9820   -4.0809    4.9231 C   0  0  0  0  0  0  0  0  0  0  0  0
   17.1368   -3.8926    6.2837 C   0  0  0  0  0  0  0  0  0  0  0  0
   16.4335   -2.8918    6.9275 C   0  0  0  0  0  0  0  0  0  0  0  0
   15.5755   -2.0789    6.2105 C   0  0  0  0  0  0  0  0  0  0  0  0
   15.4239   -2.2644    4.8491 C   0  0  0  0  0  0  0  0  0  0  0  0
   22.1368   12.5881   11.9275 I   0  5  0  0  0  0  0  0  0  0  0  0
  1  2  2  0      
  2  3  1  0      
  3  4  2  0      
  4  5  1  0      
  5  6  2  0      
  6  1  1  0      
  6  7  1  0      
  7  8  2  0      
  8  9  1  0      
  9 10  2  0      
 10  1  1  0      
  4 11  1  0      
 11 12  2  0      
 12 13  1  0      
 13  5  1  0      
 13 14  1  0      
 13 15  1  0      
 12 16  1  0      
 11 17  1  0      
 17 18  1  0      
 18 19  1  0      
 19 20  1  0      
 20 21  2  0      
 21 22  1  0      
 22 23  2  0      
 23 24  1  0      
 24 25  2  0      
 25 20  1  0      
 16 26  2  0      
 26 27  1  0      
 27 28  1  0      
 28 29  1  0      
 29 30  1  0      
 30 31  1  0      
 31 32  1  0      
 32 27  2  0      
 32 33  1  0      
 31 34  2  0      
 34 35  1  0      
 35 36  2  0      
 36 37  1  0      
 37 38  1  0      
 38 39  2  0      
 39 40  1  0      
 40 36  1  0      
 38 41  1  0      
 41 42  2  0      
 42 43  1  0      
 43 44  2  0      
 44 39  1  0      
 43 45  1  0      
 45 46  2  0      
 46 47  1  0      
 47 48  2  0      
 48 44  1  0      
 40 49  1  0      
 40 50  1  0      
 37 51  1  0      
 51 52  1  0      
 52 53  1  0      
 53 54  1  0      
 54 55  2  0      
 55 56  1  0      
 56 57  2  0      
 57 58  1  0      
 58 59  2  0      
 59 54  1  0      
M  CHG  2  11   1  60  -1
M  END
$$$$
