
  corina  12080917083D 1   1.00000     0.00000 
CORINA 3.46 0026  05.08.2008
 17 17  0  0  0  0  0  0  0  0999 V2000
   -0.0334    1.3798    0.2240 C   0  0  0  0  0  0  0  0  0  0  0  0
    1.1730    2.0732    0.2219 C   0  0  0  0  0  0  0  0  0  0  0  0
    2.3615    1.3906    0.4254 C   0  0  0  0  0  0  0  0  0  0  0  0
    2.3469    0.0228    0.6302 C   0  0  0  0  0  0  0  0  0  0  0  0
    1.1473   -0.6661    0.6327 C   0  0  0  0  0  0  0  0  0  0  0  0
   -0.0415    0.0096    0.4297 C   0  0  0  0  0  0  0  0  0  0  0  0
    1.1365   -2.1563    0.8567 C   0  0  0  0  0  0  0  0  0  0  0  0
    1.4953   -2.8599   -0.4268 C   0  0  0  0  0  0  0  0  0  0  0  0
    1.5640   -4.5938   -0.4763 Cl  0  0  0  0  0  0  0  0  0  0  0  0
    1.7352   -2.2174   -1.4209 O   0  0  0  0  0  0  0  0  0  0  0  0
    1.1856    3.4180    0.0200 O   0  0  0  0  0  0  0  0  0  0  0  0
    2.4604    4.0637    0.0303 C   0  0  0  0  0  0  0  0  0  0  0  0
   -1.2029    2.0466    0.0302 O   0  0  0  0  0  0  0  0  0  0  0  0
   -2.3906    1.2582   -0.0679 C   0  0  3  0  0  0  0  0  0  0  0  0
   -2.9251    0.9643    1.3353 C   0  0  0  0  0  0  0  0  0  0  0  0
   -3.4472    2.0248   -0.8659 C   0  0  0  0  0  0  0  0  0  0  0  0
    3.9698   -0.9072    0.9085 Br  0  0  0  0  0  0  0  0  0  0  0  0
  8  9  1  0  0  0  0
  4  5  1  0  0  0  0
  8 10  2  0  0  0  0
  2  3  1  0  0  0  0
  5  6  2  0  0  0  0
  2 11  1  0  0  0  0
  6  1  1  0  0  0  0
 11 12  1  0  0  0  0
  1  2  2  0  0  0  0
  1 13  1  0  0  0  0
  5  7  1  0  0  0  0
 13 14  1  0  0  0  0
  3  4  2  0  0  0  0
 14 15  1  0  0  0  0
  7  8  1  0  0  0  0
 14 16  1  0  0  0  0
  4 17  1  0  0  0  0
M  END
$$$$
