molbank-2004-M352-s001.mol
  corina  04131423223D 1   1.00000     0.00000 
CORINA 3.49 0023  12.04.2013
 35 38  0  0  0  0  0  0  0  0999 V2000
    0.7243    0.0130    0.8948 C   0  0  0  0  0  0  0  0  0  0  0  0
    0.0277   -0.0262   -0.3156 C   0  0  0  0  0  0  0  0  0  0  0  0
    0.5248    0.6612   -1.4256 C   0  0  0  0  0  0  0  0  0  0  0  0
    1.6995    1.3747   -1.3225 C   0  0  0  0  0  0  0  0  0  0  0  0
    2.3889    1.4110   -0.1171 C   0  0  0  0  0  0  0  0  0  0  0  0
    1.8982    0.7290    0.9890 C   0  0  0  0  0  0  0  0  0  0  0  0
    2.2435    4.0983   -0.1810 C   0  0  0  0  0  0  0  0  0  0  0  0
    3.4800    3.4687   -0.1167 C   0  0  0  0  0  0  0  0  0  0  0  0
    3.5467    2.1152   -0.0200 O   0  0  0  0  0  0  0  0  0  0  0  0
    2.1712    5.4711   -0.2795 C   0  0  0  0  0  0  0  0  0  0  0  0
    3.3440    6.2296   -0.3147 C   0  0  0  0  0  0  0  0  0  0  0  0
    4.5855    5.5922   -0.2498 C   0  0  0  0  0  0  0  0  0  0  0  0
    4.6485    4.2189   -0.1513 C   0  0  0  0  0  0  0  0  0  0  0  0
   -1.1380   -0.7362   -0.4136 N   0  0  0  0  0  0  0  0  0  0  0  0
   -2.1721   -0.2123   -1.0099 C   0  0  0  0  0  0  0  0  0  0  0  0
   -3.4248   -0.9753   -1.1153 C   0  0  0  0  0  0  0  0  0  0  0  0
   -3.5111   -2.2662   -0.5760 C   0  0  0  0  0  0  0  0  0  0  0  0
   -2.4381   -2.8190    0.0466 O   0  0  0  0  0  0  0  0  0  0  0  0
   -4.5390   -0.4143   -1.7494 C   0  0  0  0  0  0  0  0  0  0  0  0
   -5.7107   -1.1328   -1.8454 C   0  0  0  0  0  0  0  0  0  0  0  0
   -5.7937   -2.4101   -1.3166 C   0  0  0  0  0  0  0  0  0  0  0  0
   -4.7010   -2.9776   -0.6815 C   0  0  0  0  0  0  0  0  0  0  0  0
    3.2768    7.5928   -0.4129 N   0  0  0  0  0  0  0  0  0  0  0  0
    2.2931    9.6317   -1.4692 O   0  0  0  0  0  0  0  0  0  0  0  0
    3.0806   10.4021   -0.6749 C   0  0  0  0  0  0  0  0  0  0  0  0
    3.9571    9.8039    0.2409 C   0  0  0  0  0  0  0  0  0  0  0  0
    4.0293    8.3388    0.3464 C   0  0  0  0  0  0  0  0  0  0  0  0
    3.0257   11.7881   -0.7700 C   0  0  0  0  0  0  0  0  0  0  0  0
    3.8306   12.5707    0.0419 C   0  0  0  0  0  0  0  0  0  0  0  0
    4.6927   11.9805    0.9511 C   0  0  0  0  0  0  0  0  0  0  0  0
    4.7634   10.6083    1.0538 C   0  0  0  0  0  0  0  0  0  0  0  0
    2.1822   12.3756   -1.6604 O   0  0  0  0  0  0  0  0  0  0  0  0
    2.1777   13.8039   -1.7045 C   0  0  0  0  0  0  0  0  0  0  0  0
   -4.7907   -4.2327   -0.1653 O   0  0  0  0  0  0  0  0  0  0  0  0
   -6.0416   -4.9074   -0.3140 C   0  0  0  0  0  0  0  0  0  0  0  0
  1  2  2  0      
  2  3  1  0      
  3  4  2  0      
  4  5  1  0      
  5  6  2  0      
  6  1  1  0      
  7  8  2  0      
  8  9  1  0      
  9  5  1  0      
  7 10  1  0      
 10 11  2  0      
 11 12  1  0      
 12 13  2  0      
 13  8  1  0      
  2 14  1  0      
 14 15  2  0      
 15 16  1  0      
 16 17  2  0      
 17 18  1  0      
 16 19  1  0      
 19 20  2  0      
 20 21  1  0      
 21 22  2  0      
 22 17  1  0      
 23 11  1  0      
 24 25  1  0      
 25 26  1  0      
 26 27  1  0      
 27 23  2  0      
 25 28  2  0      
 28 29  1  0      
 29 30  2  0      
 30 31  1  0      
 31 26  2  0      
 28 32  1  0      
 32 33  1  0      
 22 34  1  0      
 34 35  1  0      
M  STY  1   1 SUP
M  SLB  1   1   1
M  SAL   1  2  32  33
M  SBL   1  1  35
M  SMT   1 OCH3
M  SBV   1 35   -7.1494    6.0019
M  STY  1   2 SUP
M  SLB  1   2   2
M  SAL   2  2  34  35
M  SBL   2  1  37
M  SMT   2 OCH3
M  SBV   2 37   -7.1499    6.0032
M  END
$$$$
