Untitled Document-1
  corina  08241210073D 1   1.00000     0.00000 
CORINA 3.49 0024  01.06.2011
 25 27  0  0  0  0  0  0  0  0999 V2000
    0.0000    0.0000    0.0000 Cl  0  0  0  0  0  0  0  0  0  0  0  0
   13.0282    8.4189    6.2612 C   0  0  0  0  0  0  0  0  0  0  0  0
   13.0471    7.0225    6.2535 C   0  0  0  0  0  0  0  0  0  0  0  0
   14.2313    9.1282    6.2535 C   0  0  0  0  0  0  0  0  0  0  0  0
   14.2545    6.3508    6.2384 C   0  0  0  0  0  0  0  0  0  0  0  0
   15.4324    8.4454    6.2384 C   0  0  0  0  0  0  0  0  0  0  0  0
   15.4448    7.0599    6.2308 C   0  0  0  0  0  0  0  0  0  0  0  0
   11.7414    9.1426    6.2712 C   0  0  0  0  0  0  0  0  0  0  0  0
   11.5915   10.4976    6.2793 C   0  0  0  0  0  0  0  0  0  0  0  0
   10.5209    8.5739    6.2681 O   0  0  0  0  0  0  0  0  0  0  0  0
   10.2150   10.7594    6.2811 C   0  0  0  0  0  0  0  0  0  0  0  0
    9.5781    9.5381    6.2740 C   0  0  0  0  0  0  0  0  0  0  0  0
    8.1295    9.3240    6.2723 C   0  0  0  0  0  0  0  0  0  0  0  0
    7.2094   10.2421    6.2770 N   0  0  0  0  0  0  0  0  0  0  0  0
    7.4150    7.9940    6.2581 C   0  0  0  0  0  0  0  0  0  0  0  0
    5.9222    9.7113    6.2676 N   0  0  0  0  0  0  0  0  0  0  0  0
    5.9490    8.3616    6.2556 C   0  0  0  0  0  0  0  0  0  0  0  0
    7.7701    7.2092    5.0000 C   0  0  0  0  0  0  0  0  0  0  0  0
    7.0576    5.9241    5.0025 N   0  0  0  0  0  0  0  0  0  0  0  0
    7.4369    5.1101    6.1644 C   0  0  0  0  0  0  0  0  0  0  0  0
    7.7598    7.1895    7.5077 C   0  0  0  0  0  0  0  0  0  0  0  0
    7.0413    5.8374    7.4516 C   0  0  0  0  0  0  0  0  0  0  0  0
   16.5970    9.1301    6.2309 F   0  0  0  0  0  0  0  0  0  0  0  0
   14.2744    5.0000    6.2314 F   0  0  0  0  0  0  0  0  0  0  0  0
    5.0000    7.6059    6.2451 O   0  0  0  0  0  0  0  0  0  0  0  0
  3  2  1  0      
  4  2  2  0      
  5  3  2  0      
  6  4  1  0      
  7  5  1  0      
  7  6  2  0      
  9  8  2  0      
 10  8  1  0      
 11  9  1  0      
 12 10  1  0      
 12 11  2  0      
  2  8  1  0      
 14 13  2  0      
 15 13  1  0      
 16 14  1  0      
 17 15  1  0      
 17 16  1  0      
 12 13  1  0      
 19 18  1  0      
 15 18  1  0      
 20 19  1  0      
 21 15  1  0      
 22 20  1  0      
 22 21  1  0      
  6 23  1  0      
  5 24  1  0      
 17 25  2  0      
M  END
$$$$
