Molbank-2015-M869.mol
  corina  10231515253D 1   1.00000     0.00000 
CORINA 3.60 0026  08.12.2014
 12 13  0  0  0  0  0  0  0  0999 V2000
   -0.0167    1.3829    0.0096 C   0  0  0  0  0  0  0  0  0  0  0  0
    0.0021   -0.0041    0.0020 C   0  0  0  0  0  0  0  0  0  0  0  0
    1.1977   -0.6901   -0.0127 C   0  0  0  0  0  0  0  0  0  0  0  0
    2.3998    0.0105   -0.0204 C   0  0  0  0  0  0  0  0  0  0  0  0
    2.3785    1.4146   -0.0132 C   0  0  0  0  0  0  0  0  0  0  0  0
    1.1631    2.0945    0.0022 C   0  0  0  0  0  0  0  0  0  0  0  0
    3.7218   -0.3832   -0.0356 N   0  0  0  0  0  0  0  0  0  0  0  0
    4.5379    0.7014   -0.0383 C   0  0  0  0  0  0  0  0  0  0  0  0
    3.7899    1.8406   -0.0251 C   0  0  0  0  0  0  0  0  0  0  0  0
    4.2786    3.1866   -0.0239 C   0  0  0  0  0  0  0  0  0  0  0  0
    4.6664    4.2544   -0.0229 N   0  0  0  0  0  0  0  0  0  0  0  0
    1.2047   -2.7851   -0.0226 I   0  0  0  0  0  0  0  0  0  0  0  0
  1  2  2  0      
  2  3  1  0      
  3  4  2  0      
  4  5  1  0      
  5  6  2  0      
  6  1  1  0      
  4  7  1  0      
  7  8  1  0      
  8  9  2  0      
  9  5  1  0      
  9 10  1  0      
 10 11  3  0      
  3 12  1  0      
M  END
$$$$
