m371.cdx
  corina  12080917083D 1   1.00000     0.00000 
CORINA 3.46 0026  05.08.2008
 21 22  0  0  0  0  0  0  0  0999 V2000
   -0.0168    1.3855    0.0097 C   0  0  0  0  0  0  0  0  0  0  0  0
    0.0021   -0.0041    0.0020 C   0  0  0  0  0  0  0  0  0  0  0  0
    1.2123   -0.6869   -0.0132 C   0  0  0  0  0  0  0  0  0  0  0  0
    2.3995    0.0114   -0.0203 C   0  0  0  0  0  0  0  0  0  0  0  0
    2.3856    1.4097   -0.0126 C   0  0  0  0  0  0  0  0  0  0  0  0
    1.1652    2.0924    0.0022 C   0  0  0  0  0  0  0  0  0  0  0  0
   -1.1658   -0.6968    0.0099 O   0  0  0  0  0  0  0  0  0  0  0  0
   -1.0743   -2.1229    0.0013 C   0  0  0  0  0  0  0  0  0  0  0  0
    3.5601    2.1064   -0.0196 N   0  0  0  0  0  0  0  0  0  0  0  0
    3.5450    3.3963   -0.0126 N   0  0  0  0  0  0  0  0  0  0  0  0
    4.7200    4.0932   -0.0196 C   0  0  0  0  0  0  0  0  0  0  0  0
    4.7030    5.4940   -0.0119 C   0  0  0  0  0  0  0  0  0  0  0  0
    5.8871    6.2038   -0.0194 C   0  0  0  0  0  0  0  0  0  0  0  0
    7.1072    5.5312   -0.0346 C   0  0  0  0  0  0  0  0  0  0  0  0
    7.1336    4.1266   -0.0419 C   0  0  0  0  0  0  0  0  0  0  0  0
    5.9342    3.4104   -0.0286 C   0  0  0  0  0  0  0  0  0  0  0  0
    8.4174    3.4138   -0.0585 C   0  0  0  0  0  0  0  0  0  0  0  0
    8.4377    2.2010   -0.0648 O   0  0  0  0  0  0  0  0  0  0  0  0
    8.2681    6.2317   -0.0428 O   0  0  0  0  0  0  0  0  0  0  0  0
    5.8625    7.5636   -0.0123 O   0  0  0  0  0  0  0  0  0  0  0  0
    4.5778    8.1892    0.0029 C   0  0  0  0  0  0  0  0  0  0  0  0
  1  2  2  0  0  0
  2  3  1  0  0  0
  3  4  2  0  0  0
  4  5  1  0  0  0
  5  6  2  0  0  0
  6  1  1  0  0  0
  2  7  1  0  0  0
  7  8  1  0  0  0
  5  9  1  0  0  0
  9 10  2  0  0  0
 10 11  1  0  0  0
 11 12  2  0  0  0
 12 13  1  0  0  0
 13 14  2  0  0  0
 14 15  1  0  0  0
 15 16  2  0  0  0
 16 11  1  0  0  0
 15 17  1  0  0  0
 17 18  2  0  0  0
 14 19  1  0  0  0
 13 20  1  0  0  0
 20 21  1  0  0  0
M  END
$$$$
