
  corina  12080917083D 1   1.00000     0.00000 
CORINA 3.46 0026  05.08.2008
 16 17  0  0  0  0  0  0  0  0999 V2000
   -0.0182    1.4944    0.0103 C   0  0  3  0  0  0  0  0  0  0  0  0
   -0.8005    1.9980   -1.2210 C   0  0  0  0  0  0  0  0  0  0  0  0
   -2.0295    2.7231   -0.6223 C   0  0  0  0  0  0  0  0  0  0  0  0
   -2.1115    2.1052    0.7964 C   0  0  3  0  0  0  0  0  0  0  0  0
   -0.7276    1.9528    1.1767 O   0  0  0  0  0  0  0  0  0  0  0  0
    1.0718   -0.7133   -0.3299 C   0  0  0  0  0  0  0  0  0  0  0  0
    0.0021   -0.0041    0.0020 C   0  0  0  0  0  0  0  0  0  0  0  0
    1.3552    2.0948    0.0004 C   0  0  0  0  0  0  0  0  0  0  0  0
    2.4440    1.4078   -0.3324 C   0  0  0  0  0  0  0  0  0  0  0  0
    2.3184   -0.0187   -0.6996 C   0  0  0  0  0  0  0  0  0  0  0  0
    3.2126   -0.5992   -1.2860 O   0  0  0  0  0  0  0  0  0  0  0  0
    3.6619    2.0120   -0.3354 O   0  0  0  0  0  0  0  0  0  0  0  0
    3.7019    3.3928    0.0306 C   0  0  0  0  0  0  0  0  0  0  0  0
   -2.8329    3.0534    1.7564 C   0  0  3  0  0  0  0  0  0  0  0  0
   -2.8990    2.4184    3.1468 C   0  0  0  0  0  0  0  0  0  0  0  0
   -2.0694    4.3768    1.8359 C   0  0  0  0  0  0  0  0  0  0  0  0
  3  4  1  0  0  0  0
  4  5  1  0  0  0  0
  6 10  1  0  0  0  0
  7  1  1  0  0  0  0
  1  8  1  0  0  0  0
  8  9  2  0  0  0  0
  9 10  1  0  0  0  0
  5  1  1  0  0  0  0
 10 11  2  0  0  0  0
  6  7  2  0  0  0  0
  9 12  1  0  0  0  0
  1  2  1  0  0  0  0
 12 13  1  0  0  0  0
  4 14  1  0  0  0  0
 14 15  1  0  0  0  0
  2  3  1  0  0  0  0
 14 16  1  0  0  0  0
M  END
$$$$
