
  corina  12080917083D 1   1.00000     0.00000 
CORINA 3.46 0026  05.08.2008
 18 17  0  0  0  0  0  0  0  0999 V2000
   -0.1892    4.9940   -1.5311 H   0  0  0  0  0  0  0  0  0  0  0  0
    1.0001    2.0337   -0.6924 O   0  0  0  0  0  0  0  0  0  0  0  0
    0.0349    1.3463   -0.9673 C   0  0  0  0  0  0  0  0  0  0  0  0
    0.0852   -0.1283   -0.7545 C   0  0  0  0  0  0  0  0  0  0  0  0
   -0.8800   -0.8158   -1.0294 O   0  0  0  0  0  0  0  0  0  0  0  0
   -0.7143   -2.2317   -0.0503 H   0  0  0  0  0  0  0  0  0  0  0  0
    2.7967   -3.8728   -0.5639 C   0  0  0  0  0  0  0  0  0  0  0  0
    1.2516   -0.7263   -0.2344 C   0  0  0  0  0  0  0  0  0  0  0  0
   -1.1336    1.9450   -1.4819 C   0  0  0  0  0  0  0  0  0  0  0  0
   -2.1002    4.6334   -3.5397 C   0  0  0  0  0  0  0  0  0  0  0  0
    2.5493   -2.7315    0.4245 C   0  0  3  0  0  0  0  0  0  0  0  0
    1.2542   -2.0415    0.0812 C   0  0  0  0  0  0  0  0  0  0  0  0
    0.1001   -2.7341    0.0887 O   0  0  0  0  0  0  0  0  0  0  0  0
    2.4659   -3.2955    1.8443 C   0  0  0  0  0  0  0  0  0  0  0  0
   -1.1792    3.2829   -1.6751 C   0  0  0  0  0  0  0  0  0  0  0  0
   -2.4279    3.9227   -2.2250 C   0  0  3  0  0  0  0  0  0  0  0  0
   -2.9667    4.9392   -1.2164 C   0  0  0  0  0  0  0  0  0  0  0  0
   -0.1092    4.0429   -1.3761 O   0  0  0  0  0  0  0  0  0  0  0  0
 18  1  1  0  0  0  0
 15  9  2  0  0  0  0
  8  4  1  0  0  0  0
 10 16  1  0  0  0  0
  3  4  1  0  0  0  0
  4  5  2  0  0  0  0
 11 12  1  0  0  0  0
 12 13  1  0  0  0  0
  6 13  1  0  0  0  0
 14 11  1  0  0  0  0
  2  3  2  0  0  0  0
 11  7  1  0  0  0  0
 15 16  1  0  0  0  0
  3  9  1  0  0  0  0
 16 17  1  0  0  0  0
  8 12  2  0  0  0  0
 18 15  1  0  0  0  0
M  END
$$$$
