
  corina  02131209443D 1   1.00000     0.00000 
CORINA 3.49 0024  01.06.2011
 46 49  0  0  0  0  0  0  0  0  1 V2000
    1.1110   -5.8694   -3.9353 C   0  0  0  0  0  0  0  0  0  0  0  0
    2.4215   -5.9375   -4.3738 C   0  0  0  0  0  0  0  0  0  0  0  0
    3.4602   -5.7700   -3.4815 C   0  0  0  0  0  0  0  0  0  0  0  0
    5.4472   -5.4092   -1.5545 O   0  0  0  0  0  0  0  0  0  0  0  0
    3.1080   -5.0719    0.4336 H   0  0  0  0  0  0  0  0  0  0  0  0
    5.1256   -4.9398    1.0815 C   0  0  0  0  0  0  0  0  0  0  0  0
   -1.5094   -2.6342   -0.2745 C   0  0  0  0  0  0  0  0  0  0  0  0
   -1.3503   -3.8204    0.4198 C   0  0  0  0  0  0  0  0  0  0  0  0
   -0.1519   -4.1039    1.0415 C   0  0  0  0  0  0  0  0  0  0  0  0
    3.0905   -1.7745    1.0722 H   0  0  0  0  0  0  0  0  0  0  0  0
    4.4802   -2.9006    2.2162 C   0  0  0  0  0  0  0  0  0  0  0  0
    5.4020   -3.5065    1.2461 N   0  0  0  0  0  0  0  0  0  0  0  0
    3.2044   -2.6056    1.5593 N   0  0  0  0  0  0  0  0  0  0  0  0
    2.3319   -4.5304    2.2419 O   0  0  0  0  0  0  0  0  0  0  0  0
    2.1891   -3.4890    1.6316 C   0  0  0  0  0  0  0  0  0  0  0  0
    0.9016   -3.1912    0.9685 C   0  0  0  0  0  0  0  0  0  0  0  0
    0.7345   -1.9965    0.2665 C   0  0  0  0  0  0  0  0  0  0  0  0
   -0.4693   -1.7250   -0.3503 C   0  0  0  0  0  0  0  0  0  0  0  0
    4.0275   -5.1192    0.1285 N   0  0  0  0  0  0  0  0  0  0  0  0
    4.2949   -5.3499   -1.1721 C   0  0  0  0  0  0  0  0  0  0  0  0
    3.1867   -5.5309   -2.1339 C   0  0  0  0  0  0  0  0  0  0  0  0
    1.8624   -5.4629   -1.6982 C   0  0  0  0  0  0  0  0  0  0  0  0
    0.8330   -5.6327   -2.6008 C   0  0  0  0  0  0  0  0  0  0  0  0
   13.0301   -1.1707   -1.0846 C   0  0  0  0  0  0  0  0  0  0  0  0
   12.0723   -1.1327   -2.0823 C   0  0  0  0  0  0  0  0  0  0  0  0
   10.7357   -1.2589   -1.7647 C   0  0  0  0  0  0  0  0  0  0  0  0
    9.2250   -1.7497    1.8982 H   0  0  0  0  0  0  0  0  0  0  0  0
    7.1342   -1.8593    1.5448 C   0  0  0  0  0  0  0  0  0  0  0  0
    6.7858   -3.2837    1.6328 N   0  0  0  0  0  0  0  0  0  0  0  0
    8.5517   -1.7236    1.2004 N   0  0  0  0  0  0  0  0  0  0  0  0
    8.0765   -1.5300   -0.9603 O   0  0  0  0  0  0  0  0  0  0  0  0
    8.9202   -1.5627   -0.0859 C   0  0  0  0  0  0  0  0  0  0  0  0
   10.3507   -1.4257   -0.4335 C   0  0  0  0  0  0  0  0  0  0  0  0
   11.3220   -1.4632    0.5681 C   0  0  0  0  0  0  0  0  0  0  0  0
   12.6552   -1.3353    0.2370 C   0  0  0  0  0  0  0  0  0  0  0  0
   13.4441   -4.1635    4.0272 C   0  0  0  0  0  0  0  0  0  0  0  0
   12.9742   -2.9340    4.4535 C   0  0  0  0  0  0  0  0  0  0  0  0
   11.6352   -2.6244    4.3333 C   0  0  0  0  0  0  0  0  0  0  0  0
    8.9024   -2.1497    4.0202 O   0  0  0  0  0  0  0  0  0  0  0  0
    8.8014   -4.9911    2.8140 H   0  0  0  0  0  0  0  0  0  0  0  0
    7.0467   -3.8072    2.9803 C   0  0  0  0  0  0  0  0  0  0  0  0
    8.4697   -4.1296    3.1119 N   0  0  0  0  0  0  0  0  0  0  0  0
    9.3180   -3.2292    3.6469 C   0  0  0  0  0  0  0  0  0  0  0  0
   10.7541   -3.5546    3.7797 C   0  0  0  0  0  0  0  0  0  0  0  0
   11.2347   -4.7931    3.3516 C   0  0  0  0  0  0  0  0  0  0  0  0
   12.5759   -5.0903    3.4780 C   0  0  0  0  0  0  0  0  0  0  0  0
 41 29  1  0
 29 12  1  0
  1 23  2  0
  2  1  1  0
  3  2  2  0
 21  3  1  0
 22 21  2  0
 21 20  1  0
 20  4  2  0
 20 19  1  0
 19  5  1  0
 19  6  1  0
 12  6  1  0
  7 18  2  0
  8  7  1  0
  9  8  2  0
 16  9  1  0
 17 16  2  0
 16 15  1  0
 15 13  1  0
 13 10  1  0
 13 11  1  0
 12 11  1  0
 15 14  2  0
 18 17  1  0
 23 22  1  0
 24 35  2  0
 25 24  1  0
 26 25  2  0
 33 26  1  0
 34 33  2  0
 33 32  1  0
 32 30  1  0
 30 27  1  0
 30 28  1  0
 29 28  1  0
 32 31  2  0
 35 34  1  0
 36 46  2  0
 37 36  1  0
 38 37  2  0
 44 38  1  0
 45 44  2  0
 44 43  1  0
 43 39  2  0
 43 42  1  0
 42 40  1  0
 42 41  1  0
 46 45  1  0
M  END

$$$$
