
  corina  01221011253D 1   1.00000     0.00000 
CORINA 3.46 0026  05.08.2008
 22 24  0  0  0  0  0  0  0  0999 V2000
   -0.0168    1.3892    0.0097 N   0  0  3  0  0  0  0  0  0  0  0  0
    0.0021   -0.0041    0.0020 N   0  0  0  0  0  0  0  0  0  0  0  0
   -1.1662   -0.5464    0.0102 C   0  0  0  0  0  0  0  0  0  0  0  0
   -2.2244    0.5335    0.0261 C   0  0  0  0  0  0  0  0  0  0  0  0
   -1.4156    1.8458    0.0319 C   0  0  3  0  0  0  0  0  0  0  0  0
    1.0687    2.1880    0.0036 C   0  0  0  0  0  0  0  0  0  0  0  0
    2.1798    1.7014   -0.0101 O   0  0  0  0  0  0  0  0  0  0  0  0
   -1.4309   -1.9973    0.0045 C   0  0  0  0  0  0  0  0  0  0  0  0
   -1.7026    2.6403    1.2799 C   0  0  0  0  0  0  0  0  0  0  0  0
   -2.7451   -2.4708    0.0083 C   0  0  0  0  0  0  0  0  0  0  0  0
   -2.9852   -3.8290   -0.0028 C   0  0  0  0  0  0  0  0  0  0  0  0
   -1.9281   -4.7217   -0.0171 C   0  0  0  0  0  0  0  0  0  0  0  0
   -0.6238   -4.2598   -0.0209 C   0  0  0  0  0  0  0  0  0  0  0  0
   -0.3687   -2.9043   -0.0104 C   0  0  0  0  0  0  0  0  0  0  0  0
   -2.5882    3.7005    1.2358 C   0  0  0  0  0  0  0  0  0  0  0  0
   -2.8515    4.4293    2.3808 C   0  0  0  0  0  0  0  0  0  0  0  0
   -2.2295    4.0975    3.5696 C   0  0  0  0  0  0  0  0  0  0  0  0
   -1.3443    3.0364    3.6139 C   0  0  0  0  0  0  0  0  0  0  0  0
   -1.0844    2.3050    2.4702 C   0  0  0  0  0  0  0  0  0  0  0  0
   -3.7992    5.5654    2.3333 N   0  3  0  0  0  0  0  0  0  0  0  0
   -4.3471    5.8581    1.2856 O   0  5  0  0  0  0  0  0  0  0  0  0
   -4.0312    6.2075    3.3420 O   0  0  0  0  0  0  0  0  0  0  0  0
 10 11  1  0  0  0  0
  1  2  1  0  0  0  0
 11 12  2  0  0  0  0
  1  6  1  0  0  0  0
 12 13  1  0  0  0  0
 13 14  2  0  0  0  0
 14  8  1  0  0  0  0
  6  7  2  0  0  0  0
  9 15  2  0  0  0  0
  2  3  2  0  0  0  0
 15 16  1  0  0  0  0
  3  8  1  0  0  0  0
 16 17  2  0  0  0  0
  3  4  1  0  0  0  0
 17 18  1  0  0  0  0
  5  9  1  0  0  0  0
 18 19  2  0  0  0  0
 19  9  1  0  0  0  0
  4  5  1  0  0  0  0
 16 20  1  0  0  0  0
  8 10  2  0  0  0  0
 20 21  1  0  0  0  0
  5  1  1  0  0  0  0
 20 22  2  0  0  0  0
M  CHG  2  20   1  21  -1
M  END

$$$$
