m502.mol
  corina  12080917093D 1   1.00000     0.00000 
CORINA 3.46 0026  05.08.2008
 18 18  0  0  0  0  0  0  0  0999 V2000
   -0.0167    1.3779    0.0096 C   0  0  0  0  0  0  0  0  0  0  0  0
    0.0021   -0.0041    0.0020 C   0  0  0  0  0  0  0  0  0  0  0  0
    1.2086   -0.6790   -0.0132 C   0  0  0  0  0  0  0  0  0  0  0  0
    2.3961    0.0283   -0.0212 C   0  0  0  0  0  0  0  0  0  0  0  0
    2.3773    1.4107   -0.0145 C   0  0  0  0  0  0  0  0  0  0  0  0
    1.1711    2.0854    0.0021 C   0  0  0  0  0  0  0  0  0  0  0  0
    3.6720    2.1819   -0.0223 C   0  0  0  0  0  0  0  0  0  0  0  0
    4.1764    2.4994   -1.7356 S   0  0  0  0  0  0  0  0  0  0  0  0
    5.6858    3.3969   -1.5904 C   0  0  0  0  0  0  0  0  0  0  0  0
    4.5494    1.2881   -2.3782 O   0  0  0  0  0  0  0  0  0  0  0  0
    3.2835    3.4136   -2.3570 O   0  0  0  0  0  0  0  0  0  0  0  0
    1.2276   -2.0768   -0.0199 N   0  3  0  0  0  0  0  0  0  0  0  0
    6.8904    2.7204   -1.5437 C   0  0  0  0  0  0  0  0  0  0  0  0
    8.0745    3.4245   -1.4298 C   0  0  0  0  0  0  0  0  0  0  0  0
    8.0540    4.8051   -1.3630 C   0  0  0  0  0  0  0  0  0  0  0  0
    6.8495    5.4816   -1.4106 C   0  0  0  0  0  0  0  0  0  0  0  0
    5.6656    4.7777   -1.5289 C   0  0  0  0  0  0  0  0  0  0  0  0
   13.0745   10.4816    5.0096 Cl  0  5  0  0  0  0  0  0  0  0  0  0
  1  2  2  0  0  0
  2  3  1  0  0  0
  3  4  2  0  0  0
  4  5  1  0  0  0
  5  6  2  0  0  0
  6  1  1  0  0  0
  5  7  1  0  0  0
  7  8  1  0  0  0
  8  9  1  0  0  0
  8 10  2  0  0  0
  8 11  2  0  0  0
  3 12  1  0  0  0
  9 13  2  0  0  0
 13 14  1  0  0  0
 14 15  2  0  0  0
 15 16  1  0  0  0
 16 17  2  0  0  0
 17  9  1  0  0  0
M  END
$$$$
