
  corina  07061510333D 1   1.00000     0.00000 
CORINA 3.60 0026  08.12.2014
 31 34  0  0  0  0  0  0  0  0999 V2000
   -0.0158    1.3165    0.0093 N   0  0  0  0  0  0  0  0  0  0  0  0
    0.0021   -0.0041    0.0020 C   0  0  0  0  0  0  0  0  0  0  0  0
    1.1220   -0.6954   -0.0124 N   0  0  0  0  0  0  0  0  0  0  0  0
    2.2992   -0.0781   -0.0203 C   0  0  0  0  0  0  0  0  0  0  0  0
    2.3337    1.3264   -0.0131 C   0  0  0  0  0  0  0  0  0  0  0  0
    1.1115    2.0201    0.0023 C   0  0  0  0  0  0  0  0  0  0  0  0
    3.6082   -0.4886   -0.0354 N   0  0  0  0  0  0  0  0  0  0  0  0
    4.3872    0.6300   -0.0371 C   0  0  0  0  0  0  0  0  0  0  0  0
    3.6376    1.6938   -0.0240 N   0  0  0  0  0  0  0  0  0  0  0  0
    1.0826    3.4036    0.0095 N   0  0  0  0  0  0  0  0  0  0  0  0
    5.3852   -3.3063   -1.5256 C   0  0  0  0  0  0  0  0  0  0  0  0
    4.1219   -2.4173   -1.4930 C   0  0  0  0  0  0  0  0  0  0  0  0
    4.0819   -1.8748   -0.0472 C   0  0  0  0  0  0  0  0  0  0  0  0
    5.4501   -1.9425    0.4104 O   0  0  0  0  0  0  0  0  0  0  0  0
    5.9589   -3.1959   -0.0956 C   0  0  0  0  0  0  0  0  0  0  0  0
    4.2415   -1.3430   -2.4277 O   0  0  0  0  0  0  0  0  0  0  0  0
    6.3235   -2.8083   -2.4814 O   0  0  0  0  0  0  0  0  0  0  0  0
    7.4882   -3.1726   -0.1356 C   0  0  0  0  0  0  0  0  0  0  0  0
    8.0116   -3.1118    1.2314 N   0  0  0  0  0  0  0  0  0  0  0  0
    9.6071   -3.4463    1.5228 S   0  0  0  0  0  0  0  0  0  0  0  0
    9.8057   -3.2695    2.9187 O   0  0  0  0  0  0  0  0  0  0  0  0
    9.8925   -4.6621    0.8449 O   0  0  0  0  0  0  0  0  0  0  0  0
   10.4995   -2.2712    0.7710 N   0  0  0  0  0  0  0  0  0  0  0  0
    9.6773   -0.6993    2.1034 O   0  0  0  0  0  0  0  0  0  0  0  0
   10.4107   -0.9908    1.1825 C   0  0  0  0  0  0  0  0  0  0  0  0
   11.2229    0.0785    0.4984 C   0  0  0  0  0  0  0  0  0  0  0  0
   12.6762    0.0630    1.0218 C   0  0  0  0  0  0  0  0  0  0  0  0
   13.0313    1.5679    1.0110 C   0  0  0  0  0  0  0  0  0  0  0  0
   11.6936    2.2655    1.1225 C   0  0  0  0  0  0  0  0  0  0  0  0
   11.5405    3.4298    1.4258 O   0  0  0  0  0  0  0  0  0  0  0  0
   10.6994    1.4075    0.8357 N   0  0  0  0  0  0  0  0  0  0  0  0
  1  2  1  0      
  2  3  2  0      
  3  4  1  0      
  4  5  2  0      
  5  6  1  0      
  1  6  2  0      
  4  7  1  0      
  7  8  1  0      
  8  9  2  0      
  5  9  1  0      
  6 10  1  0      
 11 12  1  0      
 13 12  1  0      
 13 14  1  0      
 14 15  1  0      
 15 11  1  0      
 12 16  1  0      
 11 17  1  0      
 15 18  1  0      
  7 13  1  0      
 18 19  1  0      
 19 20  1  0      
 20 21  2  0      
 20 22  2  0      
 20 23  1  0      
 26 27  1  0      
 27 28  1  0      
 28 29  1  0      
 29 30  2  0      
 29 31  1  0      
 25 24  2  0      
 25 23  1  0      
 26 31  1  0      
 26 25  1  0      
V    1 9
V    2 1
V    3 9
V    4 9
V    5 7
V    6 3
V    7 9
V    8 7
V    9 9
V   10 10
V   11 3'
V   12 2'
V   13 9
V   14 5'
V   15 2'
V   18 5'
M  END
$$$$
