Molbank-00-77.mol
  corina  12080917093D 1   1.00000     0.00000 
CORINA 3.46 0026  05.08.2008
 17 19  0  0  0  0  0  0  0  0999 V2000
   -0.0158    1.3149    0.0093 N   0  0  0  0  0  0  0  0  0  0  0  0
    0.0021   -0.0041    0.0020 C   0  0  0  0  0  0  0  0  0  0  0  0
    1.1956   -0.6964   -0.0126 C   0  0  0  0  0  0  0  0  0  0  0  0
    2.3961    0.0215   -0.0203 C   0  0  0  0  0  0  0  0  0  0  0  0
    2.3299    1.4188   -0.0126 C   0  0  0  0  0  0  0  0  0  0  0  0
    1.0927    2.0298    0.0025 C   0  0  0  0  0  0  0  0  0  0  0  0
    3.7008   -0.6780   -0.0355 C   0  0  0  0  0  0  0  0  0  0  0  0
    4.9193   -0.0887   -0.0439 N   0  0  0  0  0  0  0  0  0  0  0  0
    5.8628   -1.1287   -0.0569 N   0  0  0  0  0  0  0  0  0  0  0  0
    5.1869   -2.2581   -0.0558 C   0  0  0  0  0  0  0  0  0  0  0  0
    3.8791   -1.9814   -0.0375 N   0  0  0  0  0  0  0  0  0  0  0  0
    5.7805   -3.6182   -0.0675 C   0  0  0  0  0  0  0  0  0  0  0  0
    7.1665   -3.7964   -0.0807 C   0  0  0  0  0  0  0  0  0  0  0  0
    7.6766   -5.0784   -0.0914 C   0  0  0  0  0  0  0  0  0  0  0  0
    6.8749   -6.1261   -0.0892 N   0  0  0  0  0  0  0  0  0  0  0  0
    5.5616   -6.0015   -0.0769 C   0  0  0  0  0  0  0  0  0  0  0  0
    4.9686   -4.7557   -0.0598 C   0  0  0  0  0  0  0  0  0  0  0  0
  1  2  2  0  0  0  0
  2  3  1  0  0  0  0
  3  4  2  0  0  0  0
  4  5  1  0  0  0  0
  5  6  2  0  0  0  0
  1  6  1  0  0  0  0
  4  7  1  0  0  0  0
  7  8  1  0  0  0  0
  8  9  1  0  0  0  0
  9 10  2  0  0  0  0
 10 11  1  0  0  0  0
  7 11  2  0  0  0  0
 10 12  1  0  0  0  0
 12 13  1  0  0  0  0
 13 14  2  0  0  0  0
 14 15  1  0  0  0  0
 15 16  2  0  0  0  0
 16 17  1  0  0  0  0
 12 17  2  0  0  0  0
M  END
$$$$
