Molfile IPyrHCl.cdx
  corina  02131209533D 1   1.00000     0.00000 
CORINA 3.49 0024  01.06.2011
 38 45  0  0  0  0  0  0  0  0999 V2000
   -0.0158    1.3109    0.0092 C   0  0  0  0  0  0  0  0  0  0  0  0
    0.0021   -0.0041    0.0020 C   0  0  0  0  0  0  0  0  0  0  0  0
    1.2977   -0.7068   -0.0141 C   0  0  0  0  0  0  0  0  0  0  0  0
    2.4304   -0.0449   -0.0212 C   0  0  0  0  0  0  0  0  0  0  0  0
    2.4069    1.4276   -0.0130 C   0  0  0  0  0  0  0  0  0  0  0  0
    1.2524    2.0621    0.0012 C   0  0  0  0  0  0  0  0  0  0  0  0
    3.5676    2.1267   -0.0196 N   0  3  0  0  0  0  0  0  0  0  0  0
    4.6152    1.9279    0.8072 C   0  0  0  0  0  0  0  0  0  0  0  0
    5.5649    2.8250    0.4754 C   0  0  0  0  0  0  0  0  0  0  0  0
    5.0840    3.5593   -0.5494 N   0  0  0  0  0  0  0  0  0  0  0  0
    5.7336    4.5705   -1.1753 C   0  0  0  0  0  0  0  0  0  0  0  0
    6.3517    5.6513   -0.3887 C   0  0  0  0  0  0  0  0  0  0  0  0
    6.9773    6.6228   -1.0100 C   0  0  0  0  0  0  0  0  0  0  0  0
    7.0728    6.6528   -2.4807 C   0  0  0  0  0  0  0  0  0  0  0  0
    6.5197    5.6862   -3.1804 C   0  0  0  0  0  0  0  0  0  0  0  0
    5.8196    4.5882   -2.4898 C   0  0  0  0  0  0  0  0  0  0  0  0
    1.2973   -2.1792   -0.0217 C   0  0  0  0  0  0  0  0  0  0  0  0
    2.4297   -2.8414   -0.0357 C   0  0  0  0  0  0  0  0  0  0  0  0
    3.7040   -2.1030   -0.0434 C   0  0  0  0  0  0  0  0  0  0  0  0
    3.7043   -0.7838   -0.0376 C   0  0  0  0  0  0  0  0  0  0  0  0
    0.0014   -2.8814   -0.0128 C   0  0  0  0  0  0  0  0  0  0  0  0
   -0.0170   -4.1965   -0.0192 C   0  0  0  0  0  0  0  0  0  0  0  0
    1.2508   -4.9481   -0.0352 C   0  0  0  0  0  0  0  0  0  0  0  0
    2.4056   -4.3139   -0.0428 C   0  0  0  0  0  0  0  0  0  0  0  0
   -1.2430   -0.7865    0.0102 C   0  0  0  0  0  0  0  0  0  0  0  0
   -1.2433   -2.0985    0.0025 C   0  0  0  0  0  0  0  0  0  0  0  0
    6.2775    5.6576    1.0822 C   0  0  0  0  0  0  0  0  0  0  0  0
    6.8368    6.6354    1.7686 C   0  0  0  0  0  0  0  0  0  0  0  0
    7.5374    7.7241    1.0665 C   0  0  0  0  0  0  0  0  0  0  0  0
    7.6024    7.7137   -0.2438 C   0  0  0  0  0  0  0  0  0  0  0  0
    8.1680    8.8262    1.8125 C   0  0  0  0  0  0  0  0  0  0  0  0
    8.7879    9.7870    1.1581 C   0  0  0  0  0  0  0  0  0  0  0  0
    8.8552    9.7685   -0.3143 C   0  0  0  0  0  0  0  0  0  0  0  0
    8.2948    8.7845   -0.9831 C   0  0  0  0  0  0  0  0  0  0  0  0
    8.3413    8.7331   -2.4520 C   0  0  0  0  0  0  0  0  0  0  0  0
    7.7840    7.7612   -3.1348 C   0  0  0  0  0  0  0  0  0  0  0  0
    3.8711    3.1182   -0.8418 C   0  0  0  0  0  0  0  0  0  0  0  0
   13.8552   14.7870    6.8125 Cl  0  5  0  0  0  0  0  0  0  0  0  0
  1  2  2  0      
  2  3  1  0      
  3  4  2  0      
  4  5  1  0      
  5  6  2  0      
  6  1  1  0      
  5  7  1  0      
  7  8  1  0      
  8  9  2  0      
  9 10  1  0      
 10 11  1  0      
 11 12  1  0      
 12 13  2  0      
 13 14  1  0      
 14 15  2  0      
 15 16  1  0      
 16 11  2  0      
  3 17  1  0      
 17 18  2  0      
 18 19  1  0      
 19 20  2  0      
 20  4  1  0      
 17 21  1  0      
 21 22  2  0      
 22 23  1  0      
 23 24  2  0      
 24 18  1  0      
  2 25  1  0      
 25 26  2  0      
 26 21  1  0      
 12 27  1  0      
 27 28  2  0      
 28 29  1  0      
 29 30  2  0      
 30 13  1  0      
 29 31  1  0      
 31 32  2  0      
 32 33  1  0      
 33 34  2  0      
 34 30  1  0      
 34 35  1  0      
 35 36  2  0      
 36 14  1  0      
  7 37  2  0      
 10 37  1  0      
M  CHG  2   7   1  38  -1
M  END
$$$$
