
  corina  01261110403D 1   1.00000     0.00000 
CORINA 3.46 0026  05.08.2008
 24 25  0  0  0  0  0  0  0  0  1 V2000
   -2.1085   -0.7718   -1.8201 O   0  0  0  0  0  0  0  0  0  0  0  0
   -1.2403    1.4116   -1.6443 C   0  0  0  0  0  0  0  0  0  0  0  0
   -1.1486   -0.0896   -1.5497 C   0  0  0  0  0  0  0  0  0  0  0  0
    0.0001   -0.6693   -1.1647 O   0  0  0  0  0  0  0  0  0  0  0  0
   -0.0838   -3.9259    0.4473 C   0  0  0  0  0  0  0  0  0  0  0  0
   -0.0687   -2.5594    0.2771 C   0  0  0  0  0  0  0  0  0  0  0  0
   -0.0141   -2.0169   -1.0013 C   0  0  0  0  0  0  0  0  0  0  0  0
    0.0255   -2.8502   -2.1129 C   0  0  0  0  0  0  0  0  0  0  0  0
    0.0104   -4.2177   -1.9517 C   0  0  0  0  0  0  0  0  0  0  0  0
   -0.0276   -6.9618   -1.4610 O   0  0  0  0  0  0  0  0  0  0  0  0
   -0.0445   -4.7675   -0.6679 C   0  0  0  0  0  0  0  0  0  0  0  0
   -0.0614   -6.2318   -0.4904 C   0  0  0  0  0  0  0  0  0  0  0  0
   -0.1143   -6.7597    0.7481 O   0  0  0  0  0  0  0  0  0  0  0  0
   -0.1280   -8.2083    0.8472 C   0  0  0  0  0  0  0  0  0  0  0  0
    1.5995   -8.8779   -0.1899 H   0  0  0  0  0  0  0  0  0  0  0  0
    1.5301   -8.7782    2.8962 O   0  0  0  0  0  0  0  0  0  0  0  0
    1.2360   -8.7210    0.6956 N   0  0  0  0  0  0  0  0  0  0  0  0
    1.9856   -8.9748    1.7865 C   0  0  0  0  0  0  0  0  0  0  0  0
    5.9408  -10.4601    1.3469 C   0  0  0  0  0  0  0  0  0  0  0  0
    5.1739  -10.2007    0.2250 C   0  0  0  0  0  0  0  0  0  0  0  0
    3.8884   -9.7186    0.3608 C   0  0  0  0  0  0  0  0  0  0  0  0
    3.3621   -9.4922    1.6335 C   0  0  0  0  0  0  0  0  0  0  0  0
    4.1411   -9.7561    2.7612 C   0  0  0  0  0  0  0  0  0  0  0  0
    5.4249  -10.2384    2.6115 C   0  0  0  0  0  0  0  0  0  0  0  0
  3  1  2  0
  3  2  1  0
  4  3  1  0
  7  4  1  0
 11  9  1  0
  9  8  2  0
  8  7  1  0
  7  6  2  0
  6  5  1  0
  5 11  2  0
 12 10  2  0
 12 11  1  0
 13 12  1  0
 14 13  1  0
 17 14  1  0
 17 15  1  0
 18 16  2  0
 18 17  1  0
 22 18  1  0
 24 23  1  0
 23 22  2  0
 22 21  1  0
 21 20  2  0
 20 19  1  0
 19 24  2  0
M  END
$$$$
