title.cdx
  corina  02131209463D 1   1.00000     0.00000 
CORINA 3.49 0024  01.06.2011
 34 36  0  0  0  0  0  0  0  0999 V2000
   -1.3159    0.1130    0.5848 C   0  0  0  0  0  0  0  0  0  0  0  0
   -0.7863   -1.0825    0.1363 C   0  0  0  0  0  0  0  0  0  0  0  0
    0.5695   -1.3269    0.2539 C   0  0  0  0  0  0  0  0  0  0  0  0
    1.3993   -0.3766    0.8197 C   0  0  0  0  0  0  0  0  0  0  0  0
    0.8751    0.8209    1.2694 C   0  0  0  0  0  0  0  0  0  0  0  0
   -0.4854    1.0686    1.1530 C   0  0  0  0  0  0  0  0  0  0  0  0
   -1.0034    2.2455    1.5940 O   0  0  0  0  0  0  0  0  0  0  0  0
   -3.1692    0.4492    0.4169 Br  0  0  0  0  0  0  0  0  0  0  0  0
    2.0108    2.1197    2.0436 Br  0  0  0  0  0  0  0  0  0  0  0  0
    1.1438   -2.6316   -0.2350 C   0  0  0  0  0  0  0  0  0  0  0  0
    2.1644   -2.3535   -1.3009 C   0  0  0  0  0  0  0  0  0  0  0  0
    3.4828   -2.4382   -1.0558 C   0  0  0  0  0  0  0  0  0  0  0  0
    3.9483   -2.7912    0.1804 N   0  0  0  0  0  0  0  0  0  0  0  0
    3.1132   -3.4099    1.0841 C   0  0  0  0  0  0  0  0  0  0  0  0
    1.7645   -3.3626    0.9216 C   0  0  0  0  0  0  0  0  0  0  0  0
    4.4635   -2.1400   -2.1606 C   0  0  0  0  0  0  0  0  0  0  0  0
    1.7267   -1.9936   -2.5962 C   0  0  0  0  0  0  0  0  0  0  0  0
    1.3179   -2.8484   -3.3597 O   0  0  0  0  0  0  0  0  0  0  0  0
    1.7621   -0.7020   -2.9859 O   0  0  0  0  0  0  0  0  0  0  0  0
    1.0439    2.9088   -6.2419 C   0  0  0  0  0  0  0  0  0  0  0  0
    0.9294    1.4053   -5.9826 C   0  0  0  0  0  0  0  0  0  0  0  0
    1.4192    1.0931   -4.5672 C   0  0  0  0  0  0  0  0  0  0  0  0
    1.3046   -0.4104   -4.3079 C   0  0  0  0  0  0  0  0  0  0  0  0
    3.6873   -4.1305    2.2382 C   0  0  0  0  0  0  0  0  0  0  0  0
    4.4706   -5.2689    2.0354 C   0  0  0  0  0  0  0  0  0  0  0  0
    5.0041   -5.9367    3.1179 C   0  0  0  0  0  0  0  0  0  0  0  0
    4.7644   -5.4816    4.4025 C   0  0  0  0  0  0  0  0  0  0  0  0
    3.9893   -4.3544    4.6108 C   0  0  0  0  0  0  0  0  0  0  0  0
    3.4543   -3.6734    3.5372 C   0  0  0  0  0  0  0  0  0  0  0  0
    0.9330   -4.0101    1.8560 C   0  0  0  0  0  0  0  0  0  0  0  0
    1.4227   -4.7019    2.7300 O   0  0  0  0  0  0  0  0  0  0  0  0
   -0.4073   -3.8636    1.7825 O   0  0  0  0  0  0  0  0  0  0  0  0
   -2.6734   -4.2652    2.5201 C   0  0  0  0  0  0  0  0  0  0  0  0
   -1.1896   -4.5488    2.7625 C   0  0  0  0  0  0  0  0  0  0  0  0
  1  2  1  0      
  2  3  2  0      
  3  4  1  0      
  4  5  2  0      
  5  6  1  0      
  6  1  2  0      
  6  7  1  0      
  1  8  1  0      
  5  9  1  0      
  3 10  1  0      
 10 11  1  0      
 11 12  2  0      
 12 13  1  0      
 13 14  1  0      
 14 15  2  0      
 15 10  1  0      
 12 16  1  0      
 11 17  1  0      
 17 18  2  0      
 17 19  1  0      
 19 23  1  0      
 20 21  1  0      
 21 22  1  0      
 22 23  1  0      
 14 24  1  0      
 24 25  2  0      
 25 26  1  0      
 26 27  2  0      
 27 28  1  0      
 28 29  2  0      
 24 29  1  0      
 15 30  1  0      
 30 31  2  0      
 30 32  1  0      
 32 34  1  0      
 33 34  1  0      
M  STY  1   1 SUP
M  SLB  1   1   1
M  SAL   1  7  17  18  19  20  21  22  23
M  SBL   1  1  18
M  SMT   1 CO2Bu
M  SBV   1 18   -2.9908    3.9210
M  STY  1   2 SUP
M  SLB  1   2   2
M  SAL   2  6  24  25  26  27  28  29
M  SBL   2  1  25
M  SMT   2 Ph
M  SBV   2 25   -1.5066    3.3022
M  STY  1   3 SUP
M  SLB  1   3   3
M  SAL   3  5  30  31  32  33  34
M  SBL   3  1  32
M  SMT   3 CO2Et
M  SBV   3 32   -2.2763    3.9210
M  END

$$$$
