m471.mol
  corina  12080917093D 1   1.00000     0.00000 
CORINA 3.46 0026  05.08.2008
 35 38  0  0  0  0  0  0  0  0999 V2000
   -0.0167    1.3840    0.0097 C   0  0  0  0  0  0  0  0  0  0  0  0
    0.0021   -0.0041    0.0020 C   0  0  0  0  0  0  0  0  0  0  0  0
    1.1854   -0.6837   -0.0130 C   0  0  0  0  0  0  0  0  0  0  0  0
    2.3990    0.0213   -0.0208 C   0  0  0  0  0  0  0  0  0  0  0  0
    2.3795    1.4289   -0.0131 C   0  0  0  0  0  0  0  0  0  0  0  0
    1.1613    2.0999    0.0022 C   0  0  0  0  0  0  0  0  0  0  0  0
    3.5662   -0.6493   -0.0351 N   0  0  0  0  0  0  0  0  0  0  0  0
    4.7122   -0.0105   -0.0426 C   0  0  0  0  0  0  0  0  0  0  0  0
    4.7352    1.4646   -0.0355 C   0  0  0  0  0  0  0  0  0  0  0  0
    3.5651    2.1397   -0.0202 N   0  0  0  0  0  0  0  0  0  0  0  0
    5.7938    2.0651   -0.0424 O   0  0  0  0  0  0  0  0  0  0  0  0
    3.5529    3.6046   -0.0128 C   0  0  0  0  0  0  0  0  0  0  0  0
    3.5342    4.1139   -1.4310 C   0  0  0  0  0  0  0  0  0  0  0  0
    3.5206    5.4347   -1.6697 O   0  0  0  0  0  0  0  0  0  0  0  0
    3.5313    3.3333   -2.3533 O   0  0  0  0  0  0  0  0  0  0  0  0
    3.5030    5.8533   -3.0599 C   0  0  0  0  0  0  0  0  0  0  0  0
    3.4894    7.3815   -3.1323 C   0  0  0  0  0  0  0  0  0  0  0  0
    5.9806   -0.7690   -0.0578 C   0  0  0  0  0  0  0  0  0  0  0  0
    6.7437   -1.2256   -1.2294 C   0  0  0  0  0  0  0  0  0  0  0  0
    7.7991   -1.8560   -0.7531 N   0  0  0  0  0  0  0  0  0  0  0  0
    7.7906   -1.8502    0.5291 N   0  0  0  0  0  0  0  0  0  0  0  0
    6.7139   -1.2000    1.0161 C   0  0  0  0  0  0  0  0  0  0  0  0
    6.3754   -0.9949    2.4702 C   0  0  0  0  0  0  0  0  0  0  0  0
    6.3982   -1.0209   -2.6477 C   0  0  0  0  0  0  0  0  0  0  0  0
    5.3866   -0.4173   -2.9456 O   0  0  0  0  0  0  0  0  0  0  0  0
    7.2044   -1.5031   -3.6140 O   0  0  0  0  0  0  0  0  0  0  0  0
    6.8017   -1.2641   -4.9885 C   0  0  0  0  0  0  0  0  0  0  0  0
    7.8326   -1.8804   -5.9363 C   0  0  0  0  0  0  0  0  0  0  0  0
    8.7801   -2.4410    1.3255 C   0  0  0  0  0  0  0  0  0  0  0  0
    9.3985   -3.6134    0.9113 C   0  0  0  0  0  0  0  0  0  0  0  0
   10.3737   -4.1934    1.6988 C   0  0  0  0  0  0  0  0  0  0  0  0
   10.7344   -3.6081    2.8985 C   0  0  0  0  0  0  0  0  0  0  0  0
   10.1201   -2.4409    3.3140 C   0  0  0  0  0  0  0  0  0  0  0  0
    9.1486   -1.8526    2.5281 C   0  0  0  0  0  0  0  0  0  0  0  0
   11.7988   -4.2437    3.7553 C   0  0  0  0  0  0  0  0  0  0  0  0
  1  2  2  0  0  0
  2  3  1  0  0  0
  3  4  2  0  0  0
  4  5  1  0  0  0
  5  6  2  0  0  0
  6  1  1  0  0  0
  4  7  1  0  0  0
  7  8  2  0  0  0
  8  9  1  0  0  0
  9 10  1  0  0  0
 10  5  1  0  0  0
  9 11  2  0  0  0
 10 12  1  0  0  0
 12 13  1  0  0  0
 13 14  1  0  0  0
 13 15  2  0  0  0
 14 16  1  0  0  0
 16 17  1  0  0  0
  8 18  1  0  0  0
 18 19  1  0  0  0
 19 20  2  0  0  0
 20 21  1  0  0  0
 21 22  1  0  0  0
 22 18  2  0  0  0
 22 23  1  0  0  0
 19 24  1  0  0  0
 24 25  2  0  0  0
 24 26  1  0  0  0
 26 27  1  0  0  0
 27 28  1  0  0  0
 21 29  1  0  0  0
 29 30  2  0  0  0
 30 31  1  0  0  0
 31 32  2  0  0  0
 32 33  1  0  0  0
 33 34  2  0  0  0
 34 29  1  0  0  0
 32 35  1  0  0  0
M  END
$$$$
