untitled.cdx
  corina  07141410283D 1   1.00000     0.00000 
CORINA 3.49 0023  12.04.2013
 22 25  0  0  0  0  0  0  0  0999 V2000
   -0.0179    1.4706    0.0101 C   0  0  0  0  0  0  0  0  0  0  0  0
    0.0021   -0.0041    0.0020 C   0  0  0  0  0  0  0  0  0  0  0  0
    1.3572   -0.3699   -0.0129 C   0  0  0  0  0  0  0  0  0  0  0  0
    2.1004    0.7931   -0.0137 N   0  0  0  0  0  0  0  0  0  0  0  0
    1.2863    1.8747   -0.0002 C   0  0  0  0  0  0  0  0  0  0  0  0
   -0.9865   -0.9848    0.0058 C   0  0  0  0  0  0  0  0  0  0  0  0
   -0.6273   -2.3157   -0.0052 C   0  0  0  0  0  0  0  0  0  0  0  0
    0.7125   -2.6788   -0.0195 C   0  0  0  0  0  0  0  0  0  0  0  0
    1.7000   -1.7182   -0.0241 C   0  0  0  0  0  0  0  0  0  0  0  0
   -1.0634    3.6732    0.0273 N   0  0  0  0  0  0  0  0  0  0  0  0
   -1.2045    2.3328    0.0207 C   0  0  0  0  0  0  0  0  0  0  0  0
   -2.3155    1.8383    0.0236 O   0  0  0  0  0  0  0  0  0  0  0  0
    0.1423    4.3900    0.0247 N   0  0  0  0  0  0  0  0  0  0  0  0
   -0.1083    5.6517    0.0330 N   0  0  0  0  0  0  0  0  0  0  0  0
   -1.4461    5.8652    0.0414 C   0  0  0  0  0  0  0  0  0  0  0  0
   -2.0768    4.6097    0.0319 C   0  0  0  0  0  0  0  0  0  0  0  0
    3.5153    0.8474   -0.0265 O   0  0  0  0  0  0  0  0  0  0  0  0
   -1.9651   -3.6521   -0.0001 Br  0  0  0  0  0  0  0  0  0  0  0  0
   -2.2300    7.0255    0.0527 C   0  0  0  0  0  0  0  0  0  0  0  0
   -3.5910    6.9278    0.0602 C   0  0  0  0  0  0  0  0  0  0  0  0
   -4.2132    5.6865    0.0568 C   0  0  0  0  0  0  0  0  0  0  0  0
   -3.4638    4.5306    0.0376 C   0  0  0  0  0  0  0  0  0  0  0  0
  1  2  1  0      
  2  3  2  0      
  3  4  1  0      
  4  5  1  0      
  5  1  2  0      
  2  6  1  0      
  6  7  2  0      
  7  8  1  0      
  8  9  2  0      
  9  3  1  0      
 10 11  1  0      
 11  1  1  0      
 12 11  2  0      
 10 13  1  0      
 13 14  2  0      
 14 15  1  0      
 15 16  2  0      
 16 10  1  0      
  4 17  1  0      
  7 18  1  0      
 15 19  1  0      
 19 20  2  0      
 20 21  1  0      
 21 22  2  0      
 22 16  1  0      
M  END
$$$$
