
  corina  02131209593D 1   1.00000     0.00000 
CORINA 3.49 0024  01.06.2011
 24 27  0  0  0  0  0  0  0  0999 V2000
    1.1456   -0.6412    0.0867 N   0  0  0  0  0  0  0  0  0  0  0  0
   -3.7155    1.9802    0.1012 C   0  0  0  0  0  0  0  0  0  0  0  0
   -4.9096    1.2626    0.1079 C   0  0  0  0  0  0  0  0  0  0  0  0
   -4.9249   -0.0960    0.0838 C   0  0  0  0  0  0  0  0  0  0  0  0
   -2.5072    1.3547    0.0695 C   0  0  0  0  0  0  0  0  0  0  0  0
   -2.4524   -0.0481    0.0431 C   0  0  0  0  0  0  0  0  0  0  0  0
   -3.7053   -0.8052    0.0506 C   0  0  0  0  0  0  0  0  0  0  0  0
   -3.6862   -2.2009    0.0239 C   0  0  0  0  0  0  0  0  0  0  0  0
   -1.2145   -0.7287    0.0097 C   0  0  0  0  0  0  0  0  0  0  0  0
   -1.2058   -2.1415   -0.0163 C   0  0  0  0  0  0  0  0  0  0  0  0
   -2.4683   -2.8826   -0.0096 C   0  0  0  0  0  0  0  0  0  0  0  0
   -2.4259   -4.2928   -0.0362 C   0  0  0  0  0  0  0  0  0  0  0  0
   -1.2242   -4.9266   -0.0682 C   0  0  0  0  0  0  0  0  0  0  0  0
   -0.0246   -4.2185   -0.0755 C   0  0  0  0  0  0  0  0  0  0  0  0
    0.0013   -2.8580   -0.0503 C   0  0  0  0  0  0  0  0  0  0  0  0
    0.0021   -0.0041    0.0020 C   0  0  0  0  0  0  0  0  0  0  0  0
   -0.0115    1.0732   -0.0736 H   0  0  0  0  0  0  0  0  0  0  0  0
    3.6213    1.7016    0.0092 N   0  0  0  0  0  0  0  0  0  0  0  0
    4.4125    0.6702    0.1094 C   0  0  0  0  0  0  0  0  0  0  0  0
    3.5883   -0.4691    0.1607 C   0  0  0  0  0  0  0  0  0  0  0  0
    2.3058    0.0499    0.0793 C   0  0  0  0  0  0  0  0  0  0  0  0
    2.4551    1.3854   -0.0094 O   0  0  0  0  0  0  0  0  0  0  0  0
    4.0025   -1.9135    0.2763 C   0  0  0  0  0  0  0  0  0  0  0  0
    5.9185    0.6936    0.1599 C   0  0  0  0  0  0  0  0  0  0  0  0
 11 12  1  0  0  0  0
  3  4  1  0  0  0  0
 12 13  2  0  0  0  0
  6  7  1  0  0  0  0
 13 14  1  0  0  0  0
  4  7  2  0  0  0  0
 14 15  2  0  0  0  0
 15 10  1  0  0  0  0
  9 16  1  0  0  0  0
  7  8  1  0  0  0  0
 16  1  2  0  0  0  0
  8 11  2  0  0  0  0
 16 17  1  0  0  0  0
 18 19  2  0  0  0  0
  2  3  2  0  0  0  0
 10  9  2  0  0  0  0
  9  6  1  0  0  0  0
  6  5  2  0  0  0  0
  5  2  1  0  0  0  0
 20 21  2  0  0  0  0
 21 22  1  0  0  0  0
 22 18  1  0  0  0  0
 19 20  1  0  0  0  0
 10 11  1  0  0  0  0
 20 23  1  0  0  0  0
 19 24  1  0  0  0  0
 21  1  1  0  0  0  0
M  END
$$$$
