graphabs.CDX
  corina  03101509553D 1   1.00000     0.00000 
CORINA 3.49 0023  12.04.2013
 54 61  0  0  0  0  0  0  0  0999 V2000
    8.5441    0.5913    0.4512 C   0  0  0  0  0  0  0  0  0  0  0  0
    9.3586   -0.6904    0.3453 C   0  0  0  0  0  0  0  0  0  0  0  0
    9.8029   -0.9347   -1.1008 C   0  0  0  0  0  0  0  0  0  0  0  0
    9.7801    0.3987   -1.8280 C   0  0  0  0  0  0  0  0  0  0  0  0
   10.2787    1.5978   -1.0621 C   0  0  0  0  0  0  0  0  0  0  0  0
    9.3482    1.8456    0.1149 C   0  0  0  0  0  0  0  0  0  0  0  0
    9.3366    0.4416   -3.0462 C   0  0  0  0  0  0  0  0  0  0  0  0
    9.2181    1.7129   -3.8412 C   0  0  0  0  0  0  0  0  0  0  0  0
    9.1201    2.8772   -2.8432 C   0  0  0  0  0  0  0  0  0  0  0  0
   10.3825    2.8258   -1.9774 C   0  0  0  0  0  0  0  0  0  0  0  0
    8.9471    4.1938   -3.5298 C   0  0  0  0  0  0  0  0  0  0  0  0
   10.1845    5.1091   -3.4091 C   0  0  0  0  0  0  0  0  0  0  0  0
   10.4637    5.3882   -1.9571 C   0  0  0  0  0  0  0  0  0  0  0  0
   10.5623    4.0863   -1.1497 C   0  0  0  0  0  0  0  0  0  0  0  0
    8.6631    4.2032   -5.0321 C   0  0  0  0  0  0  0  0  0  0  0  0
    9.1153    5.6097   -5.5061 C   0  0  0  0  0  0  0  0  0  0  0  0
    9.7079    6.3166   -4.2519 C   0  0  0  0  0  0  0  0  0  0  0  0
   11.6906    1.3089   -0.5499 C   0  0  0  0  0  0  0  0  0  0  0  0
   11.4194    4.5417   -4.1204 C   0  0  0  0  0  0  0  0  0  0  0  0
   10.4969   -0.6536    1.2388 O   0  0  0  0  0  0  0  0  0  0  0  0
    8.6705    7.1445   -3.5574 C   0  0  0  0  0  0  0  0  0  0  0  0
    8.4178    8.5626   -4.0002 C   0  0  0  0  0  0  0  0  0  0  0  0
    8.0368    6.6755   -2.6427 O   0  0  0  0  0  0  0  0  0  0  0  0
   10.9271   -1.8279    1.7264 C   0  0  0  0  0  0  0  0  0  0  0  0
   10.3680   -2.8527    1.4147 O   0  0  0  0  0  0  0  0  0  0  0  0
   12.1073   -1.8681    2.6626 C   0  0  0  0  0  0  0  0  0  0  0  0
    9.2785    8.6738  -14.2613 C   0  0  0  0  0  0  0  0  0  0  0  0
    9.5094    7.6647  -15.3774 C   0  0  0  0  0  0  0  0  0  0  0  0
    9.7475    6.2639  -14.8036 C   0  0  0  0  0  0  0  0  0  0  0  0
    9.1430    6.2207  -13.4108 C   0  0  0  0  0  0  0  0  0  0  0  0
    7.8165    6.9129  -13.2252 C   0  0  0  0  0  0  0  0  0  0  0  0
    8.0079    8.4035  -13.4580 C   0  0  0  0  0  0  0  0  0  0  0  0
    9.7866    5.6077  -12.4661 C   0  0  0  0  0  0  0  0  0  0  0  0
    9.3096    5.5489  -11.0408 C   0  0  0  0  0  0  0  0  0  0  0  0
    8.3747    6.7472  -10.8142 C   0  0  0  0  0  0  0  0  0  0  0  0
    7.2384    6.6211  -11.8333 C   0  0  0  0  0  0  0  0  0  0  0  0
    7.8787    6.8155   -9.4056 C   0  0  0  0  0  0  0  0  0  0  0  0
    6.3721    6.5043   -9.2764 C   0  0  0  0  0  0  0  0  0  0  0  0
    5.5822    7.4983  -10.0839 C   0  0  0  0  0  0  0  0  0  0  0  0
    6.0892    7.5668  -11.5312 C   0  0  0  0  0  0  0  0  0  0  0  0
    8.5072    5.8900   -8.3635 C   0  0  0  0  0  0  0  0  0  0  0  0
    7.4382    5.7792   -7.2445 C   0  0  0  0  0  0  0  0  0  0  0  0
    6.2100    6.5976   -7.7400 C   0  0  0  0  0  0  0  0  0  0  0  0
    6.8188    6.3571  -14.2425 C   0  0  0  0  0  0  0  0  0  0  0  0
    6.0243    5.0615   -9.6642 C   0  0  0  0  0  0  0  0  0  0  0  0
    8.4010    7.6626  -16.3085 O   0  0  0  0  0  0  0  0  0  0  0  0
    6.2565    8.0050   -7.2291 C   0  0  0  0  0  0  0  0  0  0  0  0
    5.2382    8.4753   -6.2227 C   0  0  0  0  0  0  0  0  0  0  0  0
    7.1100    8.7627   -7.6238 O   0  0  0  0  0  0  0  0  0  0  0  0
    8.6773    7.3491  -17.5841 C   0  0  0  0  0  0  0  0  0  0  0  0
    9.8106    7.0853  -17.9095 O   0  0  0  0  0  0  0  0  0  0  0  0
    7.5740    7.3263  -18.6103 C   0  0  0  0  0  0  0  0  0  0  0  0
    7.9565    6.3650   -6.0009 N   0  0  0  0  0  0  0  0  0  0  0  0
    6.9090    6.4447   -4.9826 O   0  0  0  0  0  0  0  0  0  0  0  0
  1  2  1  0      
  2  3  1  0      
  3  4  1  0      
  4  5  1  0      
  5  6  1  0      
  1  6  1  0      
  4  7  2  0      
  7  8  1  0      
  8  9  1  0      
  9 10  1  0      
  5 10  1  0      
  9 11  1  0      
 11 12  1  0      
 12 13  1  0      
 13 14  1  0      
 10 14  1  0      
 11 15  1  0      
 15 16  1  0      
 16 17  1  0      
 12 17  1  0      
  5 18  1  0      
 12 19  1  0      
  2 20  1  0      
 21 17  1  0      
 21 22  1  0      
 21 23  2  0      
 20 24  1  0      
 24 25  2  0      
 24 26  1  0      
 27 28  1  0      
 28 29  1  0      
 29 30  1  0      
 30 31  1  0      
 31 32  1  0      
 27 32  1  0      
 30 33  2  0      
 33 34  1  0      
 34 35  1  0      
 35 36  1  0      
 31 36  1  0      
 35 37  1  0      
 37 38  1  0      
 38 39  1  0      
 39 40  1  0      
 36 40  1  0      
 37 41  1  0      
 41 42  1  0      
 42 43  1  0      
 38 43  1  0      
 31 44  1  0      
 38 45  1  0      
 28 46  1  0      
 47 43  1  0      
 47 48  1  0      
 47 49  2  0      
 46 50  1  0      
 50 51  2  0      
 50 52  1  0      
 42 53  1  0      
 16 53  1  0      
 53 54  1  0      
M  END
$$$$
