
  corina  04201014453D 1   1.00000     0.00000 
CORINA 3.46 0026  05.08.2008
122137  0  0  0  0  0  0  0  0  5 V2000
   -0.1160    1.1630   -0.1894 C   0  0  0  0  0  0  0  0  0  0  0  0
    0.1344   -0.1569   -0.1045 N   0  0  0  0  0  0  0  0  0  0  0  0
    1.0797    1.8320   -0.0156 C   0  0  0  0  0  0  0  0  0  0  0  0
    1.4976   -0.3624    0.1258 N   0  0  0  0  0  0  0  0  0  0  0  0
    2.1045    0.8018    0.1866 C   0  0  0  0  0  0  0  0  0  0  0  0
    3.5509    1.0306    0.4161 C   0  0  0  0  0  0  0  0  0  0  0  0
   -0.8250   -1.1701   -0.2281 C   0  0  0  0  0  0  0  0  0  0  0  0
    3.9705    2.0127    1.3123 C   0  0  0  0  0  0  0  0  0  0  0  0
    5.3184    2.2210    1.5222 C   0  0  0  0  0  0  0  0  0  0  0  0
    4.4970    0.2607   -0.2590 C   0  0  0  0  0  0  0  0  0  0  0  0
    6.2526    1.4578    0.8451 C   0  0  0  0  0  0  0  0  0  0  0  0
    5.8422    0.4780   -0.0410 C   0  0  0  0  0  0  0  0  0  0  0  0
   -0.4478   -2.5023   -0.1220 C   0  0  0  0  0  0  0  0  0  0  0  0
   -1.3962   -3.4988   -0.2439 C   0  0  0  0  0  0  0  0  0  0  0  0
   -2.7202   -3.1712   -0.4713 C   0  0  0  0  0  0  0  0  0  0  0  0
   -2.1563   -0.8441   -0.4513 C   0  0  0  0  0  0  0  0  0  0  0  0
   -3.0991   -1.8455   -0.5775 C   0  0  0  0  0  0  0  0  0  0  0  0
    1.2848    3.2864   -0.0311 C   0  0  0  0  0  0  0  0  0  0  0  0
    2.4920    3.7757    0.0408 N   0  0  0  0  0  0  0  0  0  0  0  0
    2.6832    5.1311    0.0264 C   0  0  0  0  0  0  0  0  0  0  0  0
    3.7556    7.0905    0.9104 C   0  0  0  0  0  0  0  0  0  0  0  0
    3.5671    5.7243    0.9304 C   0  0  0  0  0  0  0  0  0  0  0  0
    3.0704    7.8735   -0.0030 C   0  0  0  0  0  0  0  0  0  0  0  0
    2.1970    7.2910   -0.9057 C   0  0  0  0  0  0  0  0  0  0  0  0
    1.9995    5.9260   -0.8961 C   0  0  0  0  0  0  0  0  0  0  0  0
    3.3340    9.7460   -0.0225 Br  0  0  0  0  0  0  0  0  0  0  0  0
   11.2526   14.7460    6.5222 C   0  0  0  0  0  0  0  0  0  0  0  0
   16.2526   19.7460   11.5222 C   0  0  0  0  0  0  0  0  0  0  0  0
   39.3142   41.4278   21.3551 C   0  0  0  0  0  0  0  0  0  0  0  0
   38.9067   40.1191   21.4994 C   0  0  0  0  0  0  0  0  0  0  0  0
   39.6191   42.1905   22.4824 C   0  0  0  0  0  0  0  0  0  0  0  0
   38.7996   39.5590   22.7677 C   0  0  0  0  0  0  0  0  0  0  0  0
   39.5109   41.6265   23.7535 C   0  0  0  0  0  0  0  0  0  0  0  0
   39.1031   40.3175   23.8930 C   0  0  0  0  0  0  0  0  0  0  0  0
   38.3860   38.2327   22.9115 N   0  0  0  0  0  0  0  0  0  0  0  0
   39.2927   37.2612   23.3415 C   0  0  0  0  0  0  0  0  0  0  0  0
   37.0658   37.8779   22.6254 C   0  0  0  0  0  0  0  0  0  0  0  0
   34.7321   37.9621   23.1727 C   0  0  0  0  0  0  0  0  0  0  0  0
   34.4465   37.1748   22.0573 C   0  0  0  0  0  0  0  0  0  0  0  0
   36.0357   38.3106   23.4533 C   0  0  0  0  0  0  0  0  0  0  0  0
   35.4809   36.7464   21.2253 C   0  0  0  0  0  0  0  0  0  0  0  0
   36.7829   37.0974   21.5099 C   0  0  0  0  0  0  0  0  0  0  0  0
   38.8518   35.9696   23.6078 C   0  0  0  0  0  0  0  0  0  0  0  0
   39.7447   35.0092   24.0317 C   0  0  0  0  0  0  0  0  0  0  0  0
   40.6359   37.5856   23.4970 C   0  0  0  0  0  0  0  0  0  0  0  0
   41.0916   35.3336   24.1936 C   0  0  0  0  0  0  0  0  0  0  0  0
   41.5326   36.6284   23.9203 C   0  0  0  0  0  0  0  0  0  0  0  0
   40.0580   43.5980   22.3297 C   0  0  0  0  0  0  0  0  0  0  0  0
   33.0454   36.7987   21.7534 C   0  0  0  0  0  0  0  0  0  0  0  0
   42.0538   34.3027   24.6499 C   0  0  0  0  0  0  0  0  0  0  0  0
   40.7699   45.6668   23.3183 C   0  0  0  0  0  0  0  0  0  0  0  0
   40.3627   44.3595   23.4586 C   0  0  0  0  0  0  0  0  0  0  0  0
   40.8786   46.2313   22.0442 C   0  0  0  0  0  0  0  0  0  0  0  0
   40.5791   45.4655   20.9138 C   0  0  0  0  0  0  0  0  0  0  0  0
   40.1716   44.1586   21.0569 C   0  0  0  0  0  0  0  0  0  0  0  0
   31.4609   35.6611   20.3537 C   0  0  0  0  0  0  0  0  0  0  0  0
   30.4241   36.0951   21.1848 C   0  0  0  0  0  0  0  0  0  0  0  0
   32.7615   36.0110   20.6371 C   0  0  0  0  0  0  0  0  0  0  0  0
   30.7104   36.8793   22.3059 C   0  0  0  0  0  0  0  0  0  0  0  0
   32.0119   37.2279   22.5870 C   0  0  0  0  0  0  0  0  0  0  0  0
   43.4009   34.6291   24.8112 C   0  0  0  0  0  0  0  0  0  0  0  0
   44.2953   33.6727   25.2353 C   0  0  0  0  0  0  0  0  0  0  0  0
   43.8538   32.3741   25.5044 C   0  0  0  0  0  0  0  0  0  0  0  0
   41.6108   33.0080   24.9233 C   0  0  0  0  0  0  0  0  0  0  0  0
   42.5041   32.0484   25.3424 C   0  0  0  0  0  0  0  0  0  0  0  0
   41.2827   47.5301   21.9034 N   0  0  0  0  0  0  0  0  0  0  0  0
   42.1716   47.8428   21.0004 C   0  0  0  0  0  0  0  0  0  0  0  0
   42.6055   49.2377   20.8492 C   0  0  0  0  0  0  0  0  0  0  0  0
   42.2062   50.3778   21.6820 C   0  0  0  0  0  0  0  0  0  0  0  0
   42.8210   51.4371   21.2052 N   0  0  0  0  0  0  0  0  0  0  0  0
   43.6006   51.0594   20.1083 N   0  0  0  0  0  0  0  0  0  0  0  0
   43.4751   49.7355   19.8986 C   0  0  0  0  0  0  0  0  0  0  0  0
   41.2837   50.3418   22.8417 C   0  0  0  0  0  0  0  0  0  0  0  0
   44.3961   51.9254   19.3471 C   0  0  0  0  0  0  0  0  0  0  0  0
   45.9674   53.6358   17.8434 C   0  0  0  0  0  0  0  0  0  0  0  0
   45.2380   54.1277   18.9103 C   0  0  0  0  0  0  0  0  0  0  0  0
   45.9176   52.2899   17.5300 C   0  0  0  0  0  0  0  0  0  0  0  0
   44.4527   53.2765   19.6628 C   0  0  0  0  0  0  0  0  0  0  0  0
   45.1343   51.4335   18.2786 C   0  0  0  0  0  0  0  0  0  0  0  0
   40.5345   49.3014   24.8716 C   0  0  0  0  0  0  0  0  0  0  0  0
   41.3958   49.3295   23.7937 C   0  0  0  0  0  0  0  0  0  0  0  0
   39.5613   50.2751   25.0084 C   0  0  0  0  0  0  0  0  0  0  0  0
   39.4488   51.2849   24.0696 C   0  0  0  0  0  0  0  0  0  0  0  0
   40.3045   51.3233   22.9876 C   0  0  0  0  0  0  0  0  0  0  0  0
   29.1314   35.7481   20.9044 N   0  0  0  0  0  0  0  0  0  0  0  0
   28.3471   35.3272   21.8588 C   0  0  0  0  0  0  0  0  0  0  0  0
   26.9588   34.9546   21.5576 C   0  0  0  0  0  0  0  0  0  0  0  0
   26.3265   34.9146   20.2342 C   0  0  0  0  0  0  0  0  0  0  0  0
   25.0821   34.5315   20.4133 N   0  0  0  0  0  0  0  0  0  0  0  0
   24.8602   34.3176   21.7765 N   0  0  0  0  0  0  0  0  0  0  0  0
   25.9909   34.5664   22.4634 C   0  0  0  0  0  0  0  0  0  0  0  0
   26.9696   35.2441   18.9400 C   0  0  0  0  0  0  0  0  0  0  0  0
   23.6477   33.9016   22.3414 C   0  0  0  0  0  0  0  0  0  0  0  0
   28.8372   35.0686   17.4414 C   0  0  0  0  0  0  0  0  0  0  0  0
   28.2437   34.7589   18.6482 C   0  0  0  0  0  0  0  0  0  0  0  0
   28.1705   35.8586   16.5222 C   0  0  0  0  0  0  0  0  0  0  0  0
   26.9041   36.3385   16.8041 C   0  0  0  0  0  0  0  0  0  0  0  0
   26.3005   36.0355   18.0075 C   0  0  0  0  0  0  0  0  0  0  0  0
   22.5457   33.6679   21.5293 C   0  0  0  0  0  0  0  0  0  0  0  0
   21.3517   33.2579   22.0892 C   0  0  0  0  0  0  0  0  0  0  0  0
   21.2526   33.0804   23.4571 C   0  0  0  0  0  0  0  0  0  0  0  0
   23.5468   33.7165   23.7139 C   0  0  0  0  0  0  0  0  0  0  0  0
   22.3480   33.3127   24.2685 C   0  0  0  0  0  0  0  0  0  0  0  0
   44.7415   31.4229   25.9254 N   0  0  0  0  0  0  0  0  0  0  0  0
   44.4332   30.6378   26.9213 C   0  0  0  0  0  0  0  0  0  0  0  0
   45.3866   29.6163   27.3735 C   0  0  0  0  0  0  0  0  0  0  0  0
   46.7506   29.4050   26.8758 C   0  0  0  0  0  0  0  0  0  0  0  0
   47.2532   28.3932   27.5473 N   0  0  0  0  0  0  0  0  0  0  0  0
   45.1792   28.6676   28.3557 C   0  0  0  0  0  0  0  0  0  0  0  0
   46.2994   27.9277   28.4567 N   0  0  0  0  0  0  0  0  0  0  0  0
   47.4326   30.1852   25.8159 C   0  0  0  0  0  0  0  0  0  0  0  0
   46.4832   26.8584   29.3426 C   0  0  0  0  0  0  0  0  0  0  0  0
   47.8674   25.1164   30.2366 C   0  0  0  0  0  0  0  0  0  0  0  0
   46.8462   24.7460   31.0923 C   0  0  0  0  0  0  0  0  0  0  0  0
   47.6893   26.1704   29.3621 C   0  0  0  0  0  0  0  0  0  0  0  0
   45.6460   25.4327   31.0794 C   0  0  0  0  0  0  0  0  0  0  0  0
   45.4617   26.4876   30.2072 C   0  0  0  0  0  0  0  0  0  0  0  0
   47.3532   31.5771   25.8107 C   0  0  0  0  0  0  0  0  0  0  0  0
   47.9902   32.2981   24.8214 C   0  0  0  0  0  0  0  0  0  0  0  0
   48.7063   31.6424   23.8360 C   0  0  0  0  0  0  0  0  0  0  0  0
   48.1609   29.5302   24.8238 C   0  0  0  0  0  0  0  0  0  0  0  0
   48.7883   30.2615   23.8358 C   0  0  0  0  0  0  0  0  0  0  0  0
  2  1  1  0  0  0  0
  3  1  2  0  0  0  0
  4  2  1  0  0  0  0
  5  3  1  0  0  0  0
  5  4  2  0  0  0  0
  5  6  1  0  0  0  0
  2  7  1  0  0  0  0
  6  8  1  0  0  0  0
  9  8  2  0  0  0  0
 10  6  2  0  0  0  0
 11  9  1  0  0  0  0
 12 10  1  0  0  0  0
 12 11  2  0  0  0  0
 14 13  1  0  0  0  0
  7 13  2  0  0  0  0
 15 14  2  0  0  0  0
 16  7  1  0  0  0  0
 17 15  1  0  0  0  0
 17 16  2  0  0  0  0
  3 18  1  0  0  0  0
 18 19  2  0  0  0  0
 19 20  1  0  0  0  0
 22 21  1  0  0  0  0
 23 21  2  0  0  0  0
 20 22  2  0  0  0  0
 24 23  1  0  0  0  0
 25 20  1  0  0  0  0
 25 24  2  0  0  0  0
 23 26  1  0  0  0  0
 30 29  1  0  0  0  0
 31 29  2  0  0  0  0
 32 30  2  0  0  0  0
 33 31  1  0  0  0  0
 34 32  1  0  0  0  0
 34 33  2  0  0  0  0
 32 35  1  0  0  0  0
 35 36  1  0  0  0  0
 35 37  1  0  0  0  0
 39 38  1  0  0  0  0
 40 38  2  0  0  0  0
 41 39  2  0  0  0  0
 37 40  1  0  0  0  0
 42 41  1  0  0  0  0
 42 37  2  0  0  0  0
 36 43  1  0  0  0  0
 44 43  2  0  0  0  0
 45 36  2  0  0  0  0
 46 44  1  0  0  0  0
 47 45  1  0  0  0  0
 47 46  2  0  0  0  0
 31 48  1  0  0  0  0
 39 49  1  0  0  0  0
 46 50  1  0  0  0  0
 52 51  1  0  0  0  0
 53 51  2  0  0  0  0
 48 52  2  0  0  0  0
 54 53  1  0  0  0  0
 55 48  1  0  0  0  0
 55 54  2  0  0  0  0
 57 56  1  0  0  0  0
 58 56  2  0  0  0  0
 59 57  2  0  0  0  0
 49 58  1  0  0  0  0
 60 59  1  0  0  0  0
 60 49  2  0  0  0  0
 62 61  1  0  0  0  0
 50 61  2  0  0  0  0
 63 62  2  0  0  0  0
 64 50  1  0  0  0  0
 65 63  1  0  0  0  0
 65 64  2  0  0  0  0
 53 66  1  0  0  0  0
 66 67  2  0  0  0  0
 67 68  1  0  0  0  0
 70 69  2  0  0  0  0
 68 69  1  0  0  0  0
 71 70  1  0  0  0  0
 72 68  2  0  0  0  0
 72 71  1  0  0  0  0
 69 73  1  0  0  0  0
 71 74  1  0  0  0  0
 76 75  1  0  0  0  0
 77 75  2  0  0  0  0
 78 76  2  0  0  0  0
 79 77  1  0  0  0  0
 74 78  1  0  0  0  0
 74 79  2  0  0  0  0
 81 80  1  0  0  0  0
 82 80  2  0  0  0  0
 73 81  2  0  0  0  0
 83 82  1  0  0  0  0
 84 73  1  0  0  0  0
 84 83  2  0  0  0  0
 57 85  1  0  0  0  0
 85 86  2  0  0  0  0
 86 87  1  0  0  0  0
 89 88  2  0  0  0  0
 87 88  1  0  0  0  0
 90 89  1  0  0  0  0
 91 87  2  0  0  0  0
 91 90  1  0  0  0  0
 88 92  1  0  0  0  0
 90 93  1  0  0  0  0
 95 94  1  0  0  0  0
 96 94  2  0  0  0  0
 92 95  2  0  0  0  0
 97 96  1  0  0  0  0
 98 92  1  0  0  0  0
 98 97  2  0  0  0  0
100 99  1  0  0  0  0
 93 99  2  0  0  0  0
101100  2  0  0  0  0
102 93  1  0  0  0  0
103101  1  0  0  0  0
103102  2  0  0  0  0
 63104  1  0  0  0  0
104105  2  0  0  0  0
105106  1  0  0  0  0
106107  1  0  0  0  0
108107  2  0  0  0  0
109106  2  0  0  0  0
110108  1  0  0  0  0
110109  1  0  0  0  0
107111  1  0  0  0  0
110112  1  0  0  0  0
114113  1  0  0  0  0
115113  2  0  0  0  0
116114  2  0  0  0  0
112115  1  0  0  0  0
117116  1  0  0  0  0
117112  2  0  0  0  0
119118  1  0  0  0  0
111118  2  0  0  0  0
120119  2  0  0  0  0
121111  1  0  0  0  0
122120  1  0  0  0  0
122121  2  0  0  0  0
A   27
Cu, KOH, 1,10-phenanthroline
A   28
Tris-(4-bromophenyl)amine
M  END
$$$$
