
  corina  12080917083D 1   1.00000     0.00000 
CORINA 3.46 0026  05.08.2008
 14 14  0  0  0  0  0  0  0  0999 V2000
   -0.0164    1.3557    0.0095 C   0  0  0  0  0  0  0  0  0  0  0  0
   -1.2243    2.0334    0.0305 C   0  0  0  0  0  0  0  0  0  0  0  0
   -1.2413    3.4162    0.0385 C   0  0  0  0  0  0  0  0  0  0  0  0
   -0.0549    4.1250    0.0257 C   0  0  0  0  0  0  0  0  0  0  0  0
    1.1544    3.4546    0.0043 C   0  0  0  0  0  0  0  0  0  0  0  0
    1.1786    2.0696    0.0019 C   0  0  0  0  0  0  0  0  0  0  0  0
    0.0021   -0.0041    0.0020 O   0  0  0  0  0  0  0  0  0  0  0  0
    2.3670    1.4087   -0.0187 O   0  0  0  0  0  0  0  0  0  0  0  0
    3.5526    2.2063   -0.0371 C   0  0  0  0  0  0  0  0  0  0  0  0
   -0.0792    5.6318    0.0346 C   0  0  0  0  0  0  0  0  0  0  0  0
   -0.0669    6.1335    1.4799 C   0  0  0  0  0  0  0  0  0  0  0  0
   -0.0916    7.6633    1.4889 C   0  0  3  0  0  0  0  0  0  0  0  0
   -0.2051    8.1631    2.9305 C   0  0  0  0  0  0  0  0  0  0  0  0
    1.1134    8.1626    0.9052 O   0  0  0  0  0  0  0  0  0  0  0  0
  1  7  1  0  0  0  0
  3  4  2  0  0  0  0
  6  8  1  0  0  0  0
  8  9  1  0  0  0  0
  4  5  1  0  0  0  0
  4 10  1  0  0  0  0
  2  3  1  0  0  0  0
 10 11  1  0  0  0  0
  5  6  2  0  0  0  0
 11 12  1  0  0  0  0
  6  1  1  0  0  0  0
 12 13  1  0  0  0  0
  1  2  2  0  0  0  0
 12 14  1  0  0  0  0
M  END
$$$$
