phenalenopyrazole.mol
  corina  12080917093D 1   1.00000     0.00000 
CORINA 3.46 0026  05.08.2008
 22 23  0  0  0  0  0  0  0  0999 V2000
   -0.0169    1.3921    0.0097 C   0  0  0  0  0  0  0  0  0  0  0  0
    0.0021   -0.0041    0.0020 C   0  0  0  0  0  0  0  0  0  0  0  0
    1.2864   -0.5419   -0.0131 C   0  0  0  0  0  0  0  0  0  0  0  0
    2.3480    0.8112   -0.0160 S   0  0  0  0  0  0  0  0  0  0  0  0
    1.1357    1.9947    0.0019 N   0  0  0  0  0  0  0  0  0  0  0  0
   -1.1847   -0.8054    0.0090 C   0  0  0  0  0  0  0  0  0  0  0  0
   -1.2142    2.1062    0.0193 N   0  0  0  0  0  0  0  0  0  0  0  0
    1.6580   -1.9710   -0.0239 C   0  0  0  0  0  0  0  0  0  0  0  0
   -1.1944    3.5070    0.0269 N   0  0  0  0  0  0  0  0  0  0  0  0
   -2.3519    4.1973    0.0362 C   0  0  0  0  0  0  0  0  0  0  0  0
   -3.5273    3.5407    0.0383 O   0  0  0  0  0  0  0  0  0  0  0  0
   -2.3347    5.4123    0.0427 O   0  0  0  0  0  0  0  0  0  0  0  0
   -4.7337    4.3487    0.0485 C   0  0  0  0  0  0  0  0  0  0  0  0
   -4.7621    5.2385   -1.1958 C   0  0  0  0  0  0  0  0  0  0  0  0
   -5.9601    3.4340    0.0494 C   0  0  0  0  0  0  0  0  0  0  0  0
   -4.7501    5.2250    1.3026 C   0  0  0  0  0  0  0  0  0  0  0  0
   -2.1262   -1.4411    0.0146 N   0  0  0  0  0  0  0  0  0  0  0  0
    3.0031   -2.3458   -0.0389 C   0  0  0  0  0  0  0  0  0  0  0  0
    3.3432   -3.6826   -0.0484 C   0  0  0  0  0  0  0  0  0  0  0  0
    2.3550   -4.6512   -0.0437 C   0  0  0  0  0  0  0  0  0  0  0  0
    1.0203   -4.2869   -0.0289 C   0  0  0  0  0  0  0  0  0  0  0  0
    0.6660   -2.9538   -0.0134 C   0  0  0  0  0  0  0  0  0  0  0  0
  1  2  1  0      
  2  3  2  0      
  3  4  1  0      
  4  5  1  0      
  5  1  2  0      
  2  6  1  0      
  1  7  1  0      
  3  8  1  0      
  7  9  1  0      
  9 10  1  0      
 10 11  1  0      
 10 12  2  0      
 11 13  1  0      
 13 14  1  0      
 13 15  1  0      
 13 16  1  0      
  6 17  3  0      
  8 18  2  0      
 18 19  1  0      
 19 20  2  0      
 20 21  1  0      
 21 22  2  0      
 22  8  1  0      
M  END
$$$$
