m500.mol
  corina  12080917093D 1   1.00000     0.00000 
CORINA 3.46 0026  05.08.2008
 19 20  0  0  0  0  0  0  0  0999 V2000
   -0.0167    1.3779    0.0096 C   0  0  0  0  0  0  0  0  0  0  0  0
    0.0021   -0.0041    0.0020 C   0  0  0  0  0  0  0  0  0  0  0  0
    1.2086   -0.6790   -0.0132 C   0  0  0  0  0  0  0  0  0  0  0  0
    2.3960    0.0283   -0.0212 C   0  0  0  0  0  0  0  0  0  0  0  0
    2.3773    1.4107   -0.0145 C   0  0  0  0  0  0  0  0  0  0  0  0
    1.1711    2.0854    0.0021 C   0  0  0  0  0  0  0  0  0  0  0  0
    3.6720    2.1819   -0.0228 C   0  0  0  0  0  0  0  0  0  0  0  0
    4.1757    2.4994   -1.7363 S   0  0  0  0  0  0  0  0  0  0  0  0
    5.6851    3.3969   -1.5917 C   0  0  0  0  0  0  0  0  0  0  0  0
    6.8898    2.7204   -1.5455 C   0  0  0  0  0  0  0  0  0  0  0  0
    8.0739    3.4245   -1.4320 C   0  0  0  0  0  0  0  0  0  0  0  0
    8.0535    4.8051   -1.3652 C   0  0  0  0  0  0  0  0  0  0  0  0
    6.8489    5.4816   -1.4123 C   0  0  0  0  0  0  0  0  0  0  0  0
    5.6650    4.7777   -1.5302 C   0  0  0  0  0  0  0  0  0  0  0  0
    4.5485    1.2881   -2.3790 O   0  0  0  0  0  0  0  0  0  0  0  0
    3.2826    3.4136   -2.3574 O   0  0  0  0  0  0  0  0  0  0  0  0
    1.2287   -2.1590   -0.0203 N   0  3  0  0  0  0  0  0  0  0  0  0
    0.1823   -2.7823   -0.0128 O   0  0  0  0  0  0  0  0  0  0  0  0
    2.2916   -2.7536   -0.0337 O   0  5  0  0  0  0  0  0  0  0  0  0
  1  2  2  0  0  0
  2  3  1  0  0  0
  3  4  2  0  0  0
  4  5  1  0  0  0
  5  6  2  0  0  0
  6  1  1  0  0  0
  5  7  1  0  0  0
  7  8  1  0  0  0
  8  9  1  0  0  0
  9 10  2  0  0  0
 10 11  1  0  0  0
 11 12  2  0  0  0
 12 13  1  0  0  0
 13 14  2  0  0  0
 14  9  1  0  0  0
  8 15  2  0  0  0
  8 16  2  0  0  0
  3 17  1  0  0  0
 17 18  2  0  0  0
 17 19  1  0  0  0
M  END
$$$$
