Untitled ACS Document 1996-1
  corina  03161010353D 1   1.00000     0.00000 
CORINA 3.46 0026  05.08.2008
 39 45  0  0  0  0  0  0  0  0999 V2000
    0.0606    1.5626   -0.2237 N   0  0  0  0  0  0  0  0  0  0  0  0
    0.0388    0.1177   -0.5025 C   0  0  0  0  0  0  0  0  0  0  0  0
    1.1975   -0.2011   -1.3522 N   0  0  0  0  0  0  0  0  0  0  0  0
    2.5216    0.2903   -0.9384 C   0  0  0  0  0  0  0  0  0  0  0  0
    2.4018    1.7254   -0.6348 N   0  0  0  0  0  0  0  0  0  0  0  0
    1.3160    2.1607    0.2583 C   0  0  0  0  0  0  0  0  0  0  0  0
   -1.0568    2.3318   -0.4134 C   0  0  0  0  0  0  0  0  0  0  0  0
    3.2778    2.6324   -1.1698 C   0  0  0  0  0  0  0  0  0  0  0  0
    1.0474   -0.9364   -2.4981 C   0  0  0  0  0  0  0  0  0  0  0  0
    4.4104    2.0613   -1.9479 C   0  0  0  0  0  0  0  0  0  0  0  0
    5.6835    2.8662   -1.7600 C   0  0  0  0  0  0  0  0  0  0  0  0
    5.5697    4.1729   -2.3636 N   0  0  0  0  0  0  0  0  0  0  0  0
    4.8078    5.2197   -1.8630 C   0  0  0  0  0  0  0  0  0  0  0  0
    3.5945    5.0344   -1.1998 C   0  0  0  0  0  0  0  0  0  0  0  0
    3.0210    3.8408   -0.9461 N   0  0  0  0  0  0  0  0  0  0  0  0
   -0.3127   -1.4881   -2.7430 C   0  0  0  0  0  0  0  0  0  0  0  0
   -0.2545   -2.8580   -3.3942 C   0  0  0  0  0  0  0  0  0  0  0  0
    0.2527   -2.7742   -4.7435 N   0  0  0  0  0  0  0  0  0  0  0  0
    1.5761   -2.5313   -5.0851 C   0  0  0  0  0  0  0  0  0  0  0  0
    2.4182   -1.7025   -4.3432 C   0  0  0  0  0  0  0  0  0  0  0  0
    2.0735   -1.0557   -3.2116 N   0  0  0  0  0  0  0  0  0  0  0  0
   -0.9529    3.7492    0.0276 C   0  0  0  0  0  0  0  0  0  0  0  0
   -2.2629    4.2562    0.6027 C   0  0  0  0  0  0  0  0  0  0  0  0
   -3.2764    4.3626   -0.4201 N   0  0  0  0  0  0  0  0  0  0  0  0
   -3.9269    3.2896   -1.0138 C   0  0  0  0  0  0  0  0  0  0  0  0
   -3.3116    2.0616   -1.2582 C   0  0  0  0  0  0  0  0  0  0  0  0
   -2.0377    1.7532   -0.9418 N   0  0  0  0  0  0  0  0  0  0  0  0
    5.3049    6.5090   -2.0484 C   0  0  0  0  0  0  0  0  0  0  0  0
    4.6090    7.6087   -1.5930 C   0  0  0  0  0  0  0  0  0  0  0  0
    3.3999    7.4351   -0.9432 C   0  0  0  0  0  0  0  0  0  0  0  0
    2.8973    6.1704   -0.7479 C   0  0  0  0  0  0  0  0  0  0  0  0
    2.0588   -3.1595   -6.2322 C   0  0  0  0  0  0  0  0  0  0  0  0
    3.3579   -2.9666   -6.6519 C   0  0  0  0  0  0  0  0  0  0  0  0
    4.1973   -2.1384   -5.9282 C   0  0  0  0  0  0  0  0  0  0  0  0
    3.7388   -1.5145   -4.7920 C   0  0  0  0  0  0  0  0  0  0  0  0
   -5.2604    3.4790   -1.3739 C   0  0  0  0  0  0  0  0  0  0  0  0
   -5.9807    2.4708   -1.9786 C   0  0  0  0  0  0  0  0  0  0  0  0
   -5.3757    1.2530   -2.2342 C   0  0  0  0  0  0  0  0  0  0  0  0
   -4.0628    1.0478   -1.8815 C   0  0  0  0  0  0  0  0  0  0  0  0
  1  2  1  0  0  0
  2  3  1  0  0  0
  3  4  1  0  0  0
  4  5  1  0  0  0
  5  6  1  0  0  0
  6  1  1  0  0  0
  1  7  1  0  0  0
  5  8  1  0  0  0
  3  9  1  0  0  0
  8 10  1  0  0  0
 10 11  1  0  0  0
 11 12  1  0  0  0
 12 13  1  0  0  0
 13 14  2  0  0  0
 14 15  1  0  0  0
 15  8  2  0  0  0
  9 16  1  0  0  0
 16 17  1  0  0  0
 17 18  1  0  0  0
 18 19  1  0  0  0
 19 20  2  0  0  0
 20 21  1  0  0  0
 21  9  2  0  0  0
  7 22  1  0  0  0
 22 23  1  0  0  0
 23 24  1  0  0  0
 24 25  1  0  0  0
 25 26  1  0  0  0
 26 27  1  0  0  0
 27  7  2  0  0  0
 13 28  1  0  0  0
 28 29  2  0  0  0
 29 30  1  0  0  0
 30 31  2  0  0  0
 31 14  1  0  0  0
 19 32  1  0  0  0
 32 33  2  0  0  0
 33 34  1  0  0  0
 34 35  2  0  0  0
 35 20  1  0  0  0
 25 36  2  0  0  0
 36 37  1  0  0  0
 37 38  2  0  0  0
 38 39  1  0  0  0
 39 26  2  0  0  0
M  END
$$$$
