m440.skc
  corina  12080917093D 1   1.00000     0.00000 
CORINA 3.46 0026  05.08.2008
 24 26  0  0  0  0  0  0  0  0999 V2000
    0.0542    1.0119    0.1297 N   0  0  0  0  0  0  0  0  0  0  0  0
    0.1810   -0.3306    0.1440 C   0  0  0  0  0  0  0  0  0  0  0  0
    1.4999   -0.6219    0.0975 C   0  0  0  0  0  0  0  0  0  0  0  0
    2.2026    0.5874    0.0580 C   0  0  0  0  0  0  0  0  0  0  0  0
    1.3425    1.5663    0.0774 N   0  0  0  0  0  0  0  0  0  0  0  0
   -0.9470   -1.3283    0.2020 C   0  0  0  0  0  0  0  0  0  0  0  0
    3.7075    0.7118    0.0020 C   0  0  0  0  0  0  0  0  0  0  0  0
    4.1170    2.0988    0.2138 N   0  0  0  0  0  0  0  0  0  0  0  0
    3.5113    3.0085   -0.7692 C   0  0  0  0  0  0  0  0  0  0  0  0
    3.8192    2.5320    1.5855 C   0  0  0  0  0  0  0  0  0  0  0  0
    3.7973    4.4595   -0.3729 C   0  0  0  0  0  0  0  0  0  0  0  0
    2.7661    5.3533   -1.0645 C   0  0  0  0  0  0  0  0  0  0  0  0
    2.8482    6.7062   -0.4964 N   0  0  0  0  0  0  0  0  0  0  0  0
    4.1400    7.3313   -0.8100 C   0  0  0  0  0  0  0  0  0  0  0  0
    1.7352    7.5111   -1.0131 C   0  0  0  0  0  0  0  0  0  0  0  0
    0.4186    6.9020   -0.6246 C   0  0  0  0  0  0  0  0  0  0  0  0
   -0.7419    7.5951   -0.2500 C   0  0  0  0  0  0  0  0  0  0  0  0
   -1.7065    6.6799    0.0268 C   0  0  0  0  0  0  0  0  0  0  0  0
   -1.1688    5.4587   -0.1615 N   0  0  0  0  0  0  0  0  0  0  0  0
    0.1532    5.6209   -0.5805 N   0  0  0  0  0  0  0  0  0  0  0  0
   -3.1179    6.9756    0.4645 C   0  0  0  0  0  0  0  0  0  0  0  0
   -1.8569    4.1858    0.0685 C   0  0  0  0  0  0  0  0  0  0  0  0
   -1.1868    1.7791    0.1869 C   0  0  0  0  0  0  0  0  0  0  0  0
   -0.8643    3.1934    0.6858 C   0  0  0  0  0  0  0  0  0  0  0  0
  2  3  2  0  0  0
  1  2  1  0  0  0
  3  4  1  0  0  0
  4  5  2  0  0  0
  5  1  1  0  0  0
  2  6  1  0  0  0
  4  7  1  0  0  0
  7  8  1  0  0  0
  8  9  1  0  0  0
  8 10  1  0  0  0
  9 11  1  0  0  0
 11 12  1  0  0  0
 12 13  1  0  0  0
 13 14  1  0  0  0
 13 15  1  0  0  0
 15 16  1  0  0  0
 17 18  2  0  0  0
 16 17  1  0  0  0
 18 19  1  0  0  0
 19 20  1  0  0  0
 20 16  2  0  0  0
 18 21  1  0  0  0
 19 22  1  0  0  0
  1 23  1  0  0  0
 22 24  1  0  0  0
 24 23  1  0  0  0
M  END
$$$$
