m391.cdx
  corina  12080917083D 1   1.00000     0.00000 
CORINA 3.46 0026  05.08.2008
 17 18  0  0  0  0  0  0  0  0999 V2000
   -0.0171    1.4096    0.0098 C   0  0  0  0  0  0  0  0  0  0  0  0
    0.0021   -0.0041    0.0020 C   0  0  0  0  0  0  0  0  0  0  0  0
    1.2946   -0.3762   -0.0123 C   0  0  0  0  0  0  0  0  0  0  0  0
    2.0550    0.7308   -0.0136 O   0  0  0  0  0  0  0  0  0  0  0  0
    1.2649    1.8168   -0.0003 C   0  0  0  0  0  0  0  0  0  0  0  0
    1.8033   -1.7947   -0.0243 C   0  0  0  0  0  0  0  0  0  0  0  0
    1.9547   -2.2475   -1.4094 N   0  0  0  0  0  0  0  0  0  0  0  0
    2.8350   -3.6097   -1.7436 S   0  0  0  0  0  0  0  0  0  0  0  0
    2.7641   -3.7982   -3.1503 O   0  0  0  0  0  0  0  0  0  0  0  0
    4.0613   -3.4782   -1.0379 O   0  0  0  0  0  0  0  0  0  0  0  0
    1.9856   -4.9712   -1.0158 C   0  0  0  0  0  0  0  0  0  0  0  0
    1.0311   -5.6585   -1.7420 C   0  0  0  0  0  0  0  0  0  0  0  0
    0.3648   -6.7265   -1.1710 C   0  0  0  0  0  0  0  0  0  0  0  0
    0.6532   -7.1076    0.1261 C   0  0  0  0  0  0  0  0  0  0  0  0
    1.6084   -6.4208    0.8520 C   0  0  0  0  0  0  0  0  0  0  0  0
    2.2778   -5.3555    0.2795 C   0  0  0  0  0  0  0  0  0  0  0  0
   -0.0740   -8.2713    0.7490 C   0  0  0  0  0  0  0  0  0  0  0  0
  1  2  1  0  0  0
  2  3  2  0  0  0
  3  4  1  0  0  0
  4  5  1  0  0  0
  5  1  2  0  0  0
  3  6  1  0  0  0
  6  7  1  0  0  0
  7  8  1  0  0  0
  8  9  2  0  0  0
  8 10  2  0  0  0
  8 11  1  0  0  0
 11 12  2  0  0  0
 12 13  1  0  0  0
 13 14  2  0  0  0
 14 15  1  0  0  0
 15 16  2  0  0  0
 16 11  1  0  0  0
 14 17  1  0  0  0
M  END
$$$$
