
  corina  02131209383D 1   1.00000     0.00000 
CORINA 3.49 0024  01.06.2011
 26 29  0  0  0  0  0  0  0  0999 V2000
    0.2144   -4.5442    4.7194 C   0  0  0  0  0  0  0  0  0  0  0  0
    1.4193   -4.4989    5.4002 C   0  0  0  0  0  0  0  0  0  0  0  0
    2.5779   -4.1278    4.7448 C   0  0  0  0  0  0  0  0  0  0  0  0
    2.5457   -3.7969    3.4005 C   0  0  0  0  0  0  0  0  0  0  0  0
    0.1653   -4.2152    3.3688 C   0  0  0  0  0  0  0  0  0  0  0  0
    1.3432   -3.8370    2.7025 C   0  0  0  0  0  0  0  0  0  0  0  0
    1.0198   -3.5396    1.2858 C   0  0  0  0  0  0  0  0  0  0  0  0
   -0.4269   -3.7525    1.1028 C   0  0  0  0  0  0  0  0  0  0  0  0
   -0.9640   -4.1769    2.4078 C   0  0  0  0  0  0  0  0  0  0  0  0
   -2.1236   -4.4468    2.6527 O   0  0  0  0  0  0  0  0  0  0  0  0
    1.8063   -3.1836    0.4300 O   0  0  0  0  0  0  0  0  0  0  0  0
   -4.6518   -4.3686   -0.4759 N   0  0  3  0  0  0  0  0  0  0  0  0
   -3.3626   -4.6047   -0.7758 C   0  0  0  0  0  0  0  0  0  0  0  0
   -2.5988   -3.7002   -0.0527 C   0  0  0  0  0  0  0  0  0  0  0  0
   -3.4996   -2.9057    0.6998 C   0  0  0  0  0  0  0  0  0  0  0  0
   -4.7106   -3.3123    0.4395 N   0  0  0  0  0  0  0  0  0  0  0  0
   -3.1234   -1.7869    1.6367 C   0  0  0  0  0  0  0  0  0  0  0  0
   -2.8437   -5.6570   -1.7215 C   0  0  0  0  0  0  0  0  0  0  0  0
   -5.7528   -5.0608   -0.9976 C   0  0  0  0  0  0  0  0  0  0  0  0
   -5.6990   -6.4399   -1.1498 C   0  0  0  0  0  0  0  0  0  0  0  0
   -6.7860   -7.1194   -1.6639 C   0  0  0  0  0  0  0  0  0  0  0  0
   -7.9269   -6.4276   -2.0273 C   0  0  0  0  0  0  0  0  0  0  0  0
   -7.9835   -5.0542   -1.8770 C   0  0  0  0  0  0  0  0  0  0  0  0
   -6.9019   -4.3697   -1.3582 C   0  0  0  0  0  0  0  0  0  0  0  0
   -1.1401   -3.5877   -0.0645 C   0  0  0  0  0  0  0  0  0  0  0  0
   -0.6223   -3.3756   -0.9883 H   0  0  0  0  0  0  0  0  0  0  0  0
  5  1  1  0  0  0  0
 13 14  2  0  0  0  0
  2  3  1  0  0  0  0
  3  4  2  0  0  0  0
 12 13  1  0  0  0  0
 14 15  1  0  0  0  0
 16 12  1  0  0  0  0
  7  8  1  0  0  0  0
 15 17  1  0  0  0  0
  8  9  1  0  0  0  0
 13 18  1  0  0  0  0
  9  5  1  0  0  0  0
 12 19  1  0  0  0  0
  6  7  1  0  0  0  0
 19 20  2  0  0  0  0
  4  6  1  0  0  0  0
 20 21  1  0  0  0  0
  9 10  2  0  0  0  0
 21 22  2  0  0  0  0
  5  6  2  0  0  0  0
 22 23  1  0  0  0  0
  7 11  2  0  0  0  0
 23 24  2  0  0  0  0
 24 19  1  0  0  0  0
 15 16  2  0  0  0  0
 14 25  1  0  0  0  0
 25  8  2  0  0  0  0
  1  2  2  0  0  0  0
 25 26  1  0  0  0  0
M  END

$$$$
