m442.cdx
  corina  12080917093D 1   1.00000     0.00000 
CORINA 3.46 0026  05.08.2008
 37 41  0  0  0  0  0  0  0  0999 V2000
   -0.0838    1.3047    0.0324 C   0  0  0  0  0  0  0  0  0  0  0  0
   -0.0544   -0.0441    0.0143 N   0  0  0  0  0  0  0  0  0  0  0  0
    1.2875   -0.4464    0.0094 N   0  0  0  0  0  0  0  0  0  0  0  0
    2.0358    0.6269    0.0223 C   0  0  0  0  0  0  0  0  0  0  0  0
    1.1958    1.7450    0.0375 C   0  0  0  0  0  0  0  0  0  0  0  0
    3.5425    0.6527    0.0204 C   0  0  0  0  0  0  0  0  0  0  0  0
    4.0436   -0.1137   -1.1285 N   0  0  0  0  0  0  0  0  0  0  0  0
    5.0847    0.6339   -1.8462 C   0  0  0  0  0  0  0  0  0  0  0  0
    4.5374   -1.4316   -0.7075 C   0  0  0  0  0  0  0  0  0  0  0  0
   -1.2190   -0.9331    0.0014 C   0  0  0  0  0  0  0  0  0  0  0  0
   -0.8936   -4.2834   -1.4417 N   0  0  0  0  0  0  0  0  0  0  0  0
   -1.3888   -5.2997   -2.1789 C   0  0  0  0  0  0  0  0  0  0  0  0
   -0.3416   -5.9996   -2.6726 C   0  0  0  0  0  0  0  0  0  0  0  0
    0.8343   -5.3906   -2.2216 C   0  0  0  0  0  0  0  0  0  0  0  0
    0.5043   -4.3616   -1.4839 N   0  0  0  0  0  0  0  0  0  0  0  0
   -2.8471   -5.6014   -2.4100 C   0  0  0  0  0  0  0  0  0  0  0  0
    2.2371   -5.8434   -2.5336 C   0  0  0  0  0  0  0  0  0  0  0  0
    3.1917   -5.0891   -1.7105 N   0  0  0  0  0  0  0  0  0  0  0  0
    4.0101   -5.9932   -0.8916 C   0  0  0  0  0  0  0  0  0  0  0  0
   -1.3201    2.1664    0.0392 C   0  0  0  0  0  0  0  0  0  0  0  0
    4.4789    1.8636   -2.4723 C   0  0  0  0  0  0  0  0  0  0  0  0
    3.1909   -6.5019    0.2666 C   0  0  0  0  0  0  0  0  0  0  0  0
    3.9008    1.7757   -3.6542 N   0  0  0  0  0  0  0  0  0  0  0  0
    3.3577    2.8248   -4.2403 C   0  0  0  0  0  0  0  0  0  0  0  0
    3.3766    4.0644   -3.6295 C   0  0  0  0  0  0  0  0  0  0  0  0
    3.9757    4.1958   -2.3860 C   0  0  0  0  0  0  0  0  0  0  0  0
    4.5307    3.0692   -1.7985 C   0  0  0  0  0  0  0  0  0  0  0  0
    2.5401   -7.7166    0.1615 C   0  0  0  0  0  0  0  0  0  0  0  0
    1.7890   -8.1755    1.2328 C   0  0  0  0  0  0  0  0  0  0  0  0
    1.7206   -7.3919    2.3746 C   0  0  0  0  0  0  0  0  0  0  0  0
    2.3984   -6.1879    2.4067 C   0  0  0  0  0  0  0  0  0  0  0  0
    3.1078   -5.7854    1.3705 N   0  0  0  0  0  0  0  0  0  0  0  0
   -0.7503   -2.3865    0.0979 C   0  0  0  0  0  0  0  0  0  0  0  0
   -1.6820   -3.2782   -0.7247 C   0  0  0  0  0  0  0  0  0  0  0  0
    5.2188   -2.1227   -1.8903 C   0  0  0  0  0  0  0  0  0  0  0  0
    4.0369   -4.2242   -2.5452 C   0  0  0  0  0  0  0  0  0  0  0  0
    5.1657   -3.6393   -1.6940 C   0  0  0  0  0  0  0  0  0  0  0  0
  1  2  1  0  0  0
  2  3  1  0  0  0
  3  4  2  0  0  0
  4  5  1  0  0  0
  5  1  2  0  0  0
  4  6  1  0  0  0
  6  7  1  0  0  0
  7  8  1  0  0  0
  7  9  1  0  0  0
  2 10  1  0  0  0
 11 12  1  0  0  0
 12 13  2  0  0  0
 13 14  1  0  0  0
 14 15  2  0  0  0
 15 11  1  0  0  0
 12 16  1  0  0  0
 14 17  1  0  0  0
 17 18  1  0  0  0
 18 19  1  0  0  0
  1 20  1  0  0  0
  8 21  1  0  0  0
 19 22  1  0  0  0
 21 23  2  0  0  0
 23 24  1  0  0  0
 24 25  2  0  0  0
 25 26  1  0  0  0
 26 27  2  0  0  0
 27 21  1  0  0  0
 22 28  2  0  0  0
 28 29  1  0  0  0
 29 30  2  0  0  0
 30 31  1  0  0  0
 31 32  2  0  0  0
 32 22  1  0  0  0
 10 33  1  0  0  0
 33 34  1  0  0  0
 34 11  1  0  0  0
  9 35  1  0  0  0
 18 36  1  0  0  0
 36 37  1  0  0  0
 35 37  1  0  0  0
M  END
$$$$
