
  corina  10011210113D 1   1.00000     0.00000 
CORINA 3.49 0024  01.06.2011
 21 24  0  0  0  0  0  0  0  0999 V2000
   -0.0187    1.5258    0.0104 C   0  0  0  0  0  0  0  0  0  0  0  0
    0.7446   -0.4956    1.2462 C   0  0  0  0  0  0  0  0  0  0  0  0
    1.7614    0.3150   -1.7242 C   0  0  0  0  0  0  0  0  0  0  0  0
    2.5198   -0.1129   -2.7956 C   0  0  0  0  0  0  0  0  0  0  0  0
    2.2698   -1.3374   -3.3894 C   0  0  0  0  0  0  0  0  0  0  0  0
    1.2418   -2.1293   -2.9178 C   0  0  0  0  0  0  0  0  0  0  0  0
   -2.6078   -8.3593    1.1768 C   0  0  0  0  0  0  0  0  0  0  0  0
   -3.8599   -7.5904    1.6033 C   0  0  0  0  0  0  0  0  0  0  0  0
   -3.2353   -7.3683    0.2924 N   0  0  3  0  0  0  0  0  0  0  0  0
   -2.4697   -6.1146    0.2796 C   0  0  0  0  0  0  0  0  0  0  0  0
   -3.0018   -5.2034   -0.8283 C   0  0  0  0  0  0  0  0  0  0  0  0
   -1.0998   -3.7434   -1.5737 C   0  0  0  0  0  0  0  0  0  0  0  0
   -2.2383   -3.9531   -0.8410 N   0  0  3  0  0  0  0  0  0  0  0  0
   -2.5610   -2.8476   -0.1303 C   0  0  0  0  0  0  0  0  0  0  0  0
   -2.3392    0.1833    0.4335 O   0  0  0  0  0  0  0  0  0  0  0  0
   -1.4224   -0.5137    0.0506 C   0  0  0  0  0  0  0  0  0  0  0  0
   -1.6331   -1.8937   -0.3901 C   0  0  0  0  0  0  0  0  0  0  0  0
   -0.6667   -2.5015   -1.3502 C   0  0  0  0  0  0  0  0  0  0  0  0
    0.4680   -1.6956   -1.8483 C   0  0  0  0  0  0  0  0  0  0  0  0
    0.7392   -0.4746   -1.2228 C   0  0  0  0  0  0  0  0  0  0  0  0
    0.0021   -0.0041    0.0020 C   0  0  3  0  0  0  0  0  0  0  0  0
 21  1  1  0  0  0  0
 21  2  1  0  0  0  0
 20  3  1  0  0  0  0
  3  4  2  0  0  0  0
  4  5  1  0  0  0  0
  5  6  2  0  0  0  0
  6 19  1  0  0  0  0
  9  7  1  0  0  0  0
  7  8  1  0  0  0  0
  8  9  1  0  0  0  0
 10  9  1  0  0  0  0
 11 10  1  0  0  0  0
 13 11  1  0  0  0  0
 18 12  2  0  0  0  0
 12 13  1  0  0  0  0
 13 14  1  0  0  0  0
 14 17  2  0  0  0  0
 16 15  2  0  0  0  0
 21 16  1  0  0  0  0
 17 16  1  0  0  0  0
 17 18  1  0  0  0  0
 19 18  1  0  0  0  0
 19 20  2  0  0  0  0
 21 20  1  0  0  0  0
M  END
$$$$
