
  corina  12121311003D 1   1.00000     0.00000     0
CORINA 3.49 0023  12.04.2013
 44 46  0  0  0  0            999 V2000
   -0.2669    1.0749    0.4143 C   0  0  0  0  0  0  0  0  0  0  0  0
   -1.5267    1.6532    0.6349 C   0  0  0  0  0  0  0  0  0  0  0  0
   -2.5946    0.8764    1.0192 C   0  0  0  0  0  0  0  0  0  0  0  0
   -2.4365   -0.4898    1.1937 C   0  0  0  0  0  0  0  0  0  0  0  0
   -1.2126   -1.0790    0.9783 C   0  0  0  0  0  0  0  0  0  0  0  0
   -0.1092   -0.3077    0.5799 C   0  0  0  0  0  0  0  0  0  0  0  0
    1.0617   -0.9584    0.3668 N   0  0  0  0  0  0  0  0  0  0  0  0
    2.2286   -0.5507    0.7131 C   0  0  0  0  0  0  0  0  0  0  0  0
    3.3082   -1.3479    0.4515 N   0  0  0  0  0  0  0  0  0  0  0  0
    3.1462   -2.5201   -0.2795 C   0  0  0  0  0  0  0  0  0  0  0  0
    2.3418   -2.5313   -1.4114 C   0  0  0  0  0  0  0  0  0  0  0  0
    2.1821   -3.6959   -2.1349 C   0  0  0  0  0  0  0  0  0  0  0  0
    2.8210   -4.8603   -1.7403 C   0  0  0  0  0  0  0  0  0  0  0  0
    3.6237   -4.8688   -0.6202 C   0  0  0  0  0  0  0  0  0  0  0  0
    3.7997   -3.6969    0.1199 C   0  0  0  0  0  0  0  0  0  0  0  0
    4.6615   -3.6972    1.3152 C   0  0  0  0  0  0  0  0  0  0  0  0
    5.3809   -4.7933    1.6269 O   0  0  0  0  0  0  0  0  0  0  0  0
    6.2077   -4.7222    2.8184 C   0  0  0  0  0  0  0  0  0  0  0  0
    6.9438   -6.0500    3.0083 C   0  0  0  0  0  0  0  0  0  0  0  0
    4.7234   -2.7091    2.0198 O   0  0  0  0  0  0  0  0  0  0  0  0
    4.1870   -1.0960    0.7756 H   0  0  0  0  0  0  0  0  0  0  0  0
    2.4535    0.7701    1.3950 C   0  0  2  0  0  0  0  0  0  0  0  0
    3.5048    0.8671    1.6658 H   0  0  0  0  0  0  0  0  0  0  0  0
    1.5897    0.8503    2.6553 C   0  0  0  0  0  0  0  0  0  0  0  0
    2.0829    1.8455    0.4737 N   0  0  0  0  0  0  0  0  0  0  0  0
    2.7564    2.4818    0.1864 H   0  0  0  0  0  0  0  0  0  0  0  0
    0.8321    1.9636    0.0227 C   0  0  0  0  0  0  0  0  0  0  0  0
    0.5893    2.8621   -0.7600 O   0  0  0  0  0  0  0  0  0  0  0  0
   -1.6585    2.7169    0.5022 H   0  0  0  0  0  0  0  0  0  0  0  0
   -3.5595    1.3322    1.1858 H   0  0  0  0  0  0  0  0  0  0  0  0
   -3.2777   -1.0937    1.5004 H   0  0  0  0  0  0  0  0  0  0  0  0
   -1.0993   -2.1441    1.1172 H   0  0  0  0  0  0  0  0  0  0  0  0
    1.8402   -1.6279   -1.7257 H   0  0  0  0  0  0  0  0  0  0  0  0
    1.5548   -3.6996   -3.0141 H   0  0  0  0  0  0  0  0  0  0  0  0
    2.6890   -5.7662   -2.3134 H   0  0  0  0  0  0  0  0  0  0  0  0
    4.1190   -5.7793   -0.3169 H   0  0  0  0  0  0  0  0  0  0  0  0
    6.9337   -3.9166    2.7093 H   0  0  0  0  0  0  0  0  0  0  0  0
    5.5778   -4.5286    3.6867 H   0  0  0  0  0  0  0  0  0  0  0  0
    7.5645   -5.9967    3.9027 H   0  0  0  0  0  0  0  0  0  0  0  0
    6.2178   -6.8556    3.1173 H   0  0  0  0  0  0  0  0  0  0  0  0
    7.5737   -6.2436    2.1400 H   0  0  0  0  0  0  0  0  0  0  0  0
    1.8611    0.0414    3.3337 H   0  0  0  0  0  0  0  0  0  0  0  0
    1.7542    1.8085    3.1482 H   0  0  0  0  0  0  0  0  0  0  0  0
    0.5386    0.7580    2.3819 H   0  0  0  0  0  0  0  0  0  0  0  0
  1  6  1  0  0  0  0
  1 27  1  0  0  0  0
  1  2  2  0  0  0  0
  2  3  1  0  0  0  0
  2 29  1  0  0  0  0
  3  4  2  0  0  0  0
  3 30  1  0  0  0  0
  4  5  1  0  0  0  0
  4 31  1  0  0  0  0
  5  6  2  0  0  0  0
  5 32  1  0  0  0  0
  6  7  1  0  0  0  0
  7  8  2  0  0  0  0
  8  9  1  0  0  0  0
  8 22  1  0  0  0  0
  9 10  1  0  0  0  0
  9 21  1  0  0  0  0
 10 15  1  0  0  0  0
 10 11  2  0  0  0  0
 11 12  1  0  0  0  0
 11 33  1  0  0  0  0
 12 13  2  0  0  0  0
 12 34  1  0  0  0  0
 13 14  1  0  0  0  0
 13 35  1  0  0  0  0
 14 15  2  0  0  0  0
 14 36  1  0  0  0  0
 15 16  1  0  0  0  0
 16 17  1  0  0  0  0
 16 20  2  0  0  0  0
 17 18  1  0  0  0  0
 18 19  1  0  0  0  0
 18 37  1  0  0  0  0
 18 38  1  0  0  0  0
 19 39  1  0  0  0  0
 19 40  1  0  0  0  0
 19 41  1  0  0  0  0
 22 23  1  0  0  0  0
 22 24  1  0  0  0  0
 22 25  1  0  0  0  0
 24 42  1  0  0  0  0
 24 43  1  0  0  0  0
 24 44  1  0  0  0  0
 25 26  1  0  0  0  0
 25 27  1  0  0  0  0
 27 28  2  0  0  0  0
M  END
$$$$
