m437.skc
  corina  12080917093D 1   1.00000     0.00000 
CORINA 3.46 0026  05.08.2008
 35 40  0  0  0  0  0  0  0  0999 V2000
   -0.0167    1.3802    0.0096 C   0  0  0  0  0  0  0  0  0  0  0  0
    0.0021   -0.0041    0.0020 C   0  0  0  0  0  0  0  0  0  0  0  0
    1.1999   -0.6919   -0.0132 C   0  0  0  0  0  0  0  0  0  0  0  0
    1.1688    2.0882    0.0021 C   0  0  0  0  0  0  0  0  0  0  0  0
    2.3806    1.4046   -0.0132 C   0  0  0  0  0  0  0  0  0  0  0  0
    2.4036    0.0025   -0.0205 C   0  0  0  0  0  0  0  0  0  0  0  0
    4.5858    0.5921   -0.0387 C   0  0  0  0  0  0  0  0  0  0  0  0
    3.7919    1.8471   -0.0243 C   0  0  0  0  0  0  0  0  0  0  0  0
    5.7985    0.5115   -0.0503 O   0  0  0  0  0  0  0  0  0  0  0  0
    4.2432    3.0781   -0.0234 N   0  0  0  0  0  0  0  0  0  0  0  0
    5.5828    3.3111   -0.0361 C   0  0  0  0  0  0  0  0  0  0  0  0
    6.1213    4.2791   -0.8935 C   0  0  0  0  0  0  0  0  0  0  0  0
    7.4801    4.5090   -0.8996 C   0  0  0  0  0  0  0  0  0  0  0  0
    8.3124    3.7865   -0.0615 C   0  0  0  0  0  0  0  0  0  0  0  0
    7.7886    2.8277    0.7892 C   0  0  0  0  0  0  0  0  0  0  0  0
    6.4316    2.5885    0.8122 C   0  0  0  0  0  0  0  0  0  0  0  0
    8.0619    5.5496   -1.8214 C   0  0  0  0  0  0  0  0  0  0  0  0
    8.0936    6.8822   -1.1184 C   0  0  0  0  0  0  0  0  0  0  0  0
    9.2016    7.2453   -0.3836 C   0  0  0  0  0  0  0  0  0  0  0  0
    9.2289    8.4847    0.2686 C   0  0  0  0  0  0  0  0  0  0  0  0
    8.1278    9.3446    0.1675 C   0  0  0  0  0  0  0  0  0  0  0  0
    7.0281    8.9654   -0.5715 C   0  0  0  0  0  0  0  0  0  0  0  0
    7.0117    7.7407   -1.2172 C   0  0  0  0  0  0  0  0  0  0  0  0
   10.3178    8.8507    0.9960 N   0  0  0  0  0  0  0  0  0  0  0  0
   13.8853   10.9162    3.0055 C   0  0  0  0  0  0  0  0  0  0  0  0
   14.0210   12.2184    2.5556 C   0  0  0  0  0  0  0  0  0  0  0  0
   13.1452   12.7353    1.6208 C   0  0  0  0  0  0  0  0  0  0  0  0
   12.8667   10.1196    2.5211 C   0  0  0  0  0  0  0  0  0  0  0  0
   11.9790   10.6311    1.5796 C   0  0  0  0  0  0  0  0  0  0  0  0
   12.1137   11.9495    1.1212 C   0  0  0  0  0  0  0  0  0  0  0  0
   10.3166   11.1554    0.0032 C   0  0  0  0  0  0  0  0  0  0  0  0
   10.8101   10.0599    0.8760 C   0  0  0  0  0  0  0  0  0  0  0  0
    9.3622   11.0989   -0.7473 O   0  0  0  0  0  0  0  0  0  0  0  0
    3.7232   -0.4385   -0.0350 N   0  0  0  0  0  0  0  0  0  0  0  0
   11.1140   12.2207    0.1922 N   0  0  0  0  0  0  0  0  0  0  0  0
  1  2  2  0  0  0
  2  3  1  0  0  0
  3  6  2  0  0  0
  5  4  2  0  0  0
  4  1  1  0  0  0
  5  6  1  0  0  0
  7  8  1  0  0  0
  8  5  1  0  0  0
  7  9  2  0  0  0
  8 10  2  0  0  0
 10 11  1  0  0  0
 11 12  2  0  0  0
 12 13  1  0  0  0
 13 14  2  0  0  0
 14 15  1  0  0  0
 15 16  2  0  0  0
 16 11  1  0  0  0
 13 17  1  0  0  0
 17 18  1  0  0  0
 18 19  2  0  0  0
 19 20  1  0  0  0
 20 21  2  0  0  0
 21 22  1  0  0  0
 22 23  2  0  0  0
 23 18  1  0  0  0
 20 24  1  0  0  0
 25 26  2  0  0  0
 26 27  1  0  0  0
 27 30  2  0  0  0
 29 28  2  0  0  0
 28 25  1  0  0  0
 29 30  1  0  0  0
 31 32  1  0  0  0
 32 29  1  0  0  0
 31 33  2  0  0  0
 24 32  2  0  0  0
  6 34  1  0  0  0
  7 34  1  0  0  0
 30 35  1  0  0  0
 31 35  1  0  0  0
M  STY  1   1 SUP
M  SLB  1   1   1
M  SAL   1  1  34
M  SBL   1  2  37  38
M  SMT   1 N
M  SBV   1 37   -8.2905    6.0424
M  SBV   1 38   -9.4128    5.3069
M  STY  1   2 SUP
M  SLB  1   2   2
M  SAL   2  1  35
M  SBL   2  2  39  40
M  SMT   2 N
M  SBV   2 39   -9.9471    6.0424
M  SBV   2 40   -8.8248    5.3069
M  END
$$$$
