
  corina  12080917083D 1   1.00000     0.00000 
CORINA 3.46 0026  05.08.2008
 24 26  0  0  0  0  0  0  0  0999 V2000
    0.2766    0.7821   -0.1928 N   0  0  0  0  0  0  0  0  0  0  0  0
    0.0758   -0.5016   -0.0388 C   0  0  0  0  0  0  0  0  0  0  0  0
    1.3215   -1.1359    0.0098 C   0  0  0  0  0  0  0  0  0  0  0  0
    2.2775   -0.1864   -0.1185 C   0  0  0  0  0  0  0  0  0  0  0  0
    1.6588    1.0060   -0.2391 N   0  0  3  0  0  0  0  0  0  0  0  0
    2.4571    3.9916    1.4741 C   0  0  0  0  0  0  0  0  0  0  0  0
    1.5721    4.6952    2.2180 C   0  0  0  0  0  0  0  0  0  0  0  0
    0.2846    4.3605    1.7860 C   0  0  0  0  0  0  0  0  0  0  0  0
    0.3927    3.4891    0.8160 N   0  0  0  0  0  0  0  0  0  0  0  0
    1.7546    3.2368    0.6046 N   0  0  3  0  0  0  0  0  0  0  0  0
    2.3128    2.3098   -0.3842 C   0  0  0  0  0  0  0  0  0  0  0  0
    3.7663   -0.4197   -0.1247 C   0  0  0  0  0  0  0  0  0  0  0  0
    3.9583    4.0423    1.5955 C   0  0  0  0  0  0  0  0  0  0  0  0
   -1.0049    4.9093    2.3401 C   0  0  0  0  0  0  0  0  0  0  0  0
   -1.2665   -1.1779    0.0705 C   0  0  0  0  0  0  0  0  0  0  0  0
   -1.8077    3.8101    2.8927 N   0  0  3  0  0  0  0  0  0  0  0  0
   -1.9831   -0.6561    1.2421 N   0  0  3  0  0  0  0  0  0  0  0  0
   -2.8239    4.3171    3.8245 C   0  0  0  0  0  0  0  0  0  0  0  0
   -2.4249    3.0177    1.8207 C   0  0  0  0  0  0  0  0  0  0  0  0
   -1.1090   -0.6234    2.4223 C   0  0  0  0  0  0  0  0  0  0  0  0
   -2.5458    0.6726    0.9669 C   0  0  0  0  0  0  0  0  0  0  0  0
   -0.6830   -2.0485    2.7811 C   0  0  0  0  0  0  0  0  0  0  0  0
   -2.1359    4.9181    5.0518 C   0  0  0  0  0  0  0  0  0  0  0  0
   -2.4410    1.5413    2.2220 C   0  0  0  0  0  0  0  0  0  0  0  0
  4 12  1  0  0  0  0
  1  2  2  0  0  0  0
  6 13  1  0  0  0  0
  2  3  1  0  0  0  0
  8 14  1  0  0  0  0
  3  4  2  0  0  0  0
  2 15  1  0  0  0  0
  4  5  1  0  0  0  0
 14 16  1  0  0  0  0
  6  7  2  0  0  0  0
 15 17  1  0  0  0  0
  7  8  1  0  0  0  0
 16 18  1  0  0  0  0
  8  9  2  0  0  0  0
 16 19  1  0  0  0  0
  9 10  1  0  0  0  0
 17 20  1  0  0  0  0
  6 10  1  0  0  0  0
 17 21  1  0  0  0  0
  1  5  1  0  0  0  0
 20 22  1  0  0  0  0
  5 11  1  0  0  0  0
 18 23  1  0  0  0  0
 10 11  1  0  0  0  0
 21 24  1  0  0  0  0
 19 24  1  0  0  0  0
M  END
$$$$
