m465.mol
  corina  12080917093D 1   1.00000     0.00000 
CORINA 3.46 0026  05.08.2008
 52 56  0  0  0  0  0  0  0  0999 V2000
   -0.0529    2.8827   -0.3516 C   0  0  0  0  0  0  0  0  0  0  0  0
   -0.7581    1.7969    0.1503 C   0  0  0  0  0  0  0  0  0  0  0  0
   -0.1365    0.5611    0.2712 C   0  0  0  0  0  0  0  0  0  0  0  0
    1.1829    0.4118   -0.1081 C   0  0  0  0  0  0  0  0  0  0  0  0
    1.8878    1.4974   -0.6109 C   0  0  0  0  0  0  0  0  0  0  0  0
    1.2666    2.7335   -0.7304 C   0  0  0  0  0  0  0  0  0  0  0  0
    3.2257    1.3462   -0.9946 N   0  0  0  0  0  0  0  0  0  0  0  0
   -2.0958    1.9482    0.5348 N   0  0  0  0  0  0  0  0  0  0  0  0
    4.0278    2.5241   -1.3344 C   0  0  0  0  0  0  0  0  0  0  0  0
    4.6660    3.0463   -0.1236 N   0  0  0  0  0  0  0  0  0  0  0  0
    3.8236    0.0102   -1.0562 C   0  0  0  0  0  0  0  0  0  0  0  0
   -2.7826    0.8630    1.2396 C   0  0  0  0  0  0  0  0  0  0  0  0
   -2.5098    0.9636    2.6755 N   0  0  0  0  0  0  0  0  0  0  0  0
   -2.8086    3.1918    0.2325 C   0  0  0  0  0  0  0  0  0  0  0  0
   -3.6922    2.9811   -0.9170 N   0  0  0  0  0  0  0  0  0  0  0  0
    3.7805   -0.4809   -2.4357 N   0  0  0  0  0  0  0  0  0  0  0  0
    4.6293   -0.1767   -3.3508 N   0  0  0  0  0  0  0  0  0  0  0  0
    4.3133   -0.7802   -4.4797 C   0  0  0  0  0  0  0  0  0  0  0  0
    3.1434   -1.5368   -4.2297 C   0  0  0  0  0  0  0  0  0  0  0  0
    2.8460   -1.3232   -2.9267 C   0  0  0  0  0  0  0  0  0  0  0  0
   -3.3199    1.5617    3.5754 C   0  0  0  0  0  0  0  0  0  0  0  0
   -2.7266    1.4485    4.7866 C   0  0  0  0  0  0  0  0  0  0  0  0
   -1.5185    0.7490    4.5523 C   0  0  0  0  0  0  0  0  0  0  0  0
   -1.4682    0.4908    3.2603 N   0  0  0  0  0  0  0  0  0  0  0  0
   -4.9049    2.5635   -0.8445 N   0  0  0  0  0  0  0  0  0  0  0  0
   -5.4275    2.4800   -2.0522 C   0  0  0  0  0  0  0  0  0  0  0  0
   -4.4263    2.8911   -2.9644 C   0  0  0  0  0  0  0  0  0  0  0  0
   -3.3508    3.2035   -2.2045 C   0  0  0  0  0  0  0  0  0  0  0  0
    5.9318    2.7745    0.2608 C   0  0  0  0  0  0  0  0  0  0  0  0
    6.1497    3.4368    1.4209 C   0  0  0  0  0  0  0  0  0  0  0  0
    4.9402    4.1164    1.7015 C   0  0  0  0  0  0  0  0  0  0  0  0
    4.1039    3.8329    0.7223 N   0  0  0  0  0  0  0  0  0  0  0  0
    5.0405   -0.6846   -5.7603 C   0  0  0  0  0  0  0  0  0  0  0  0
    1.6832   -1.9087   -2.1677 C   0  0  0  0  0  0  0  0  0  0  0  0
    6.1467    0.0793   -5.8514 O   0  0  0  0  0  0  0  0  0  0  0  0
    4.6418   -1.2946   -6.7323 O   0  0  0  0  0  0  0  0  0  0  0  0
    6.8108    0.1263   -7.1418 C   0  0  0  0  0  0  0  0  0  0  0  0
    4.6689    4.9824    2.8654 C   0  0  0  0  0  0  0  0  0  0  0  0
    3.4632    5.5677    3.0030 O   0  0  0  0  0  0  0  0  0  0  0  0
    5.5327    5.1674    3.6993 O   0  0  0  0  0  0  0  0  0  0  0  0
    3.2671    6.4062    4.1721 C   0  0  0  0  0  0  0  0  0  0  0  0
    6.9178    1.8969   -0.4663 C   0  0  0  0  0  0  0  0  0  0  0  0
   -2.0175    3.6983   -2.7030 C   0  0  0  0  0  0  0  0  0  0  0  0
   -6.7957    2.0409   -2.3888 C   0  0  0  0  0  0  0  0  0  0  0  0
   -7.1552    2.0086   -3.5488 O   0  0  0  0  0  0  0  0  0  0  0  0
   -7.6461    1.6758   -1.4096 O   0  0  0  0  0  0  0  0  0  0  0  0
   -8.9757    1.2551   -1.8141 C   0  0  0  0  0  0  0  0  0  0  0  0
   -4.6385    2.2308    3.2850 C   0  0  0  0  0  0  0  0  0  0  0  0
   -0.5101    0.3747    5.5628 C   0  0  0  0  0  0  0  0  0  0  0  0
   -0.6801    0.6699    6.7290 O   0  0  0  0  0  0  0  0  0  0  0  0
    0.5989   -0.2945    5.1920 O   0  0  0  0  0  0  0  0  0  0  0  0
    1.5474   -0.6299    6.2390 C   0  0  0  0  0  0  0  0  0  0  0  0
  1  2  2  0  0  0
  2  3  1  0  0  0
  3  4  2  0  0  0
  4  5  1  0  0  0
  5  6  2  0  0  0
  6  1  1  0  0  0
  5  7  1  0  0  0
  2  8  1  0  0  0
  7  9  1  0  0  0
  9 10  1  0  0  0
  7 11  1  0  0  0
  8 12  1  0  0  0
 12 13  1  0  0  0
  8 14  1  0  0  0
 14 15  1  0  0  0
 11 16  1  0  0  0
 16 17  1  0  0  0
 17 18  2  0  0  0
 18 19  1  0  0  0
 19 20  2  0  0  0
 20 16  1  0  0  0
 13 21  1  0  0  0
 21 22  2  0  0  0
 22 23  1  0  0  0
 23 24  2  0  0  0
 24 13  1  0  0  0
 15 25  1  0  0  0
 25 26  2  0  0  0
 26 27  1  0  0  0
 27 28  2  0  0  0
 28 15  1  0  0  0
 10 29  1  0  0  0
 29 30  2  0  0  0
 30 31  1  0  0  0
 31 32  2  0  0  0
 32 10  1  0  0  0
 18 33  1  0  0  0
 20 34  1  0  0  0
 33 35  1  0  0  0
 33 36  2  0  0  0
 35 37  1  0  0  0
 31 38  1  0  0  0
 38 39  1  0  0  0
 38 40  2  0  0  0
 39 41  1  0  0  0
 29 42  1  0  0  0
 28 43  1  0  0  0
 26 44  1  0  0  0
 44 45  2  0  0  0
 44 46  1  0  0  0
 46 47  1  0  0  0
 21 48  1  0  0  0
 23 49  1  0  0  0
 49 50  2  0  0  0
 49 51  1  0  0  0
 51 52  1  0  0  0
M  END
$$$$
