m577.mol
  corina  12080917093D 1   1.00000     0.00000 
CORINA 3.46 0026  05.08.2008
 17 20  0  0  0  0  0  0  0  0999 V2000
   -0.0164    1.3609    0.0095 C   0  0  0  0  0  0  0  0  0  0  0  0
    0.0021   -0.0041    0.0020 C   0  0  0  0  0  0  0  0  0  0  0  0
    1.2051   -0.6974   -0.0127 C   0  0  0  0  0  0  0  0  0  0  0  0
    2.4029   -0.0199   -0.0204 C   0  0  0  0  0  0  0  0  0  0  0  0
    2.4093    1.3769   -0.0135 C   0  0  0  0  0  0  0  0  0  0  0  0
    1.1856    2.0773    0.0019 C   0  0  0  0  0  0  0  0  0  0  0  0
    3.6775    2.1208   -0.0211 C   0  0  0  0  0  0  0  0  0  0  0  0
    3.6627    3.5293   -0.0134 C   0  0  0  0  0  0  0  0  0  0  0  0
    2.3820    4.2461    0.0021 C   0  0  0  0  0  0  0  0  0  0  0  0
    1.1834    3.5394    0.0093 C   0  0  0  0  0  0  0  0  0  0  0  0
    4.8992    1.4432   -0.0353 C   0  0  0  0  0  0  0  0  0  0  0  0
    6.0771    2.1539   -0.0418 C   0  0  0  0  0  0  0  0  0  0  0  0
    6.0631    3.5424   -0.0343 C   0  0  0  0  0  0  0  0  0  0  0  0
    4.8719    4.2300   -0.0203 C   0  0  0  0  0  0  0  0  0  0  0  0
    2.0425    5.5459    0.0125 N   0  0  0  0  0  0  0  0  0  0  0  0
    0.7599    5.6467    0.0250 N   0  0  0  0  0  0  0  0  0  0  0  0
    0.1996    4.4870    0.0237 N   0  0  0  0  0  0  0  0  0  0  0  0
  1  2  2  0  0  0  0
  2  3  1  0  0  0  0
  3  4  2  0  0  0  0
  4  5  1  0  0  0  0
  5  6  2  0  0  0  0
  1  6  1  0  0  0  0
  5  7  1  0  0  0  0
  7  8  2  0  0  0  0
  8  9  1  0  0  0  0
 10  9  2  0  0  0  0
  6 10  1  0  0  0  0
  7 11  1  0  0  0  0
 11 12  2  0  0  0  0
 12 13  1  0  0  0  0
 13 14  2  0  0  0  0
  8 14  1  0  0  0  0
  9 15  1  0  0  0  0
 15 16  2  0  0  0  0
 16 17  1  0  0  0  0
 10 17  1  0  0  0  0
M  END
$$$$
