the title compound.mol
  corina  06161508513D 1   1.00000     0.00000 
CORINA 3.49 0023  12.04.2013
 59 66  0  0  0  0  0  0  0  0999 V2000
   -0.0167    1.3781    0.0096 C   0  0  0  0  0  0  0  0  0  0  0  0
    0.0021   -0.0041    0.0020 C   0  0  0  0  0  0  0  0  0  0  0  0
    1.2084   -0.6789   -0.0132 C   0  0  0  0  0  0  0  0  0  0  0  0
    2.3960    0.0285   -0.0212 C   0  0  0  0  0  0  0  0  0  0  0  0
    2.3773    1.4107   -0.0145 C   0  0  0  0  0  0  0  0  0  0  0  0
    1.1709    2.0855    0.0021 C   0  0  0  0  0  0  0  0  0  0  0  0
   -1.3319    2.1138    0.0199 C   0  0  0  0  0  0  0  0  0  0  0  0
   -1.6761    2.5895    1.4451 C   0  0  0  0  0  0  0  0  0  0  0  0
   -1.7332    4.0955    1.3228 C   0  0  0  0  0  0  0  0  0  0  0  0
   -1.4812    4.4384    0.1056 N   0  0  0  0  0  0  0  0  0  0  0  0
   -2.0313    5.0263    2.4231 C   0  0  0  0  0  0  0  0  0  0  0  0
   -3.3551    5.4089    2.6898 C   0  0  0  0  0  0  0  0  0  0  0  0
   -3.5777    6.3071    3.7624 C   0  0  0  0  0  0  0  0  0  0  0  0
   -2.4690    6.7743    4.5098 C   0  0  0  0  0  0  0  0  0  0  0  0
   -1.2299    6.3702    4.2029 N   0  0  0  0  0  0  0  0  0  0  0  0
   -0.9942    5.5374    3.2221 C   0  0  0  0  0  0  0  0  0  0  0  0
   -5.0473    7.6031    5.1308 C   0  0  0  0  0  0  0  0  0  0  0  0
   -3.9599    8.0638    5.8683 C   0  0  0  0  0  0  0  0  0  0  0  0
   -2.6915    7.6650    5.5732 C   0  0  0  0  0  0  0  0  0  0  0  0
   -4.8698    6.7380    4.0926 C   0  0  0  0  0  0  0  0  0  0  0  0
   -4.4784    4.8927    1.8790 C   0  0  0  0  0  0  0  0  0  0  0  0
    0.4264    5.1255    2.9336 C   0  0  0  0  0  0  0  0  0  0  0  0
   -1.2310    3.3654   -0.7474 N   0  0  0  0  0  0  0  0  0  0  0  0
   -0.9431    3.4587   -2.0607 C   0  0  0  0  0  0  0  0  0  0  0  0
   -0.8715    4.8109   -2.7222 C   0  0  0  0  0  0  0  0  0  0  0  0
   -5.4455    4.0722    2.4627 C   0  0  0  0  0  0  0  0  0  0  0  0
   -6.4913    3.5943    1.7006 C   0  0  0  0  0  0  0  0  0  0  0  0
   -6.5829    3.9262    0.3604 C   0  0  0  0  0  0  0  0  0  0  0  0
   -5.6278    4.7389   -0.2244 C   0  0  0  0  0  0  0  0  0  0  0  0
   -4.5801    5.2283    0.5277 C   0  0  0  0  0  0  0  0  0  0  0  0
   -0.7416    2.4542   -2.7104 O   0  0  0  0  0  0  0  0  0  0  0  0
   -0.5310    4.6365   -4.2036 C   0  0  0  0  0  0  0  0  0  0  0  0
   12.3810   15.1436   14.4642 C   0  0  0  0  0  0  0  0  0  0  0  0
   12.3939   13.7447   14.4694 C   0  0  0  0  0  0  0  0  0  0  0  0
   12.4180   13.0638   15.6680 C   0  0  0  0  0  0  0  0  0  0  0  0
   12.4295   13.7605   16.8640 C   0  0  0  0  0  0  0  0  0  0  0  0
   12.4165   15.1446   16.8673 C   0  0  0  0  0  0  0  0  0  0  0  0
   12.3928   15.8403   15.6772 C   0  0  0  0  0  0  0  0  0  0  0  0
   12.3614   15.8782   13.1897 C   0  0  0  0  0  0  0  0  0  0  0  0
   12.3491   17.2284   13.1888 C   0  0  0  0  0  0  0  0  0  0  0  0
   12.3296   17.9589   11.9214 C   0  0  0  0  0  0  0  0  0  0  0  0
   12.4185   17.3537   10.8683 O   0  0  0  0  0  0  0  0  0  0  0  0
   12.2024   19.4286   11.9190 C   0  0  0  0  0  0  0  0  0  0  0  0
   10.9358   20.0315   11.9800 C   0  0  0  0  0  0  0  0  0  0  0  0
   10.8792   21.4470   11.9748 C   0  0  0  0  0  0  0  0  0  0  0  0
   12.0873   22.1833   11.9092 C   0  0  0  0  0  0  0  0  0  0  0  0
   13.2639   21.5456   11.8525 N   0  0  0  0  0  0  0  0  0  0  0  0
   13.3472   20.2404   11.8615 C   0  0  0  0  0  0  0  0  0  0  0  0
    9.6370   23.4884   12.0255 C   0  0  0  0  0  0  0  0  0  0  0  0
   10.8226   24.2152   11.9620 C   0  0  0  0  0  0  0  0  0  0  0  0
   12.0299   23.5866   11.9042 C   0  0  0  0  0  0  0  0  0  0  0  0
    9.6541   22.1253   12.0328 C   0  0  0  0  0  0  0  0  0  0  0  0
    9.7039   19.2173   12.0468 C   0  0  0  0  0  0  0  0  0  0  0  0
   14.7054   19.5907   11.7957 C   0  0  0  0  0  0  0  0  0  0  0  0
    8.8941   19.2627   13.1834 C   0  0  0  0  0  0  0  0  0  0  0  0
    7.7459   18.5003   13.2392 C   0  0  0  0  0  0  0  0  0  0  0  0
    7.3960   17.6917   12.1721 C   0  0  0  0  0  0  0  0  0  0  0  0
    8.1941   17.6419   11.0427 C   0  0  0  0  0  0  0  0  0  0  0  0
    9.3419   18.4036   10.9713 C   0  0  0  0  0  0  0  0  0  0  0  0
  1  2  2  0      
  2  3  1  0      
  3  4  2  0      
  4  5  1  0      
  5  6  2  0      
  6  1  1  0      
  1  7  1  0      
  7  8  1  0      
  8  9  1  0      
  9 10  2  0      
  9 11  1  0      
 11 12  2  0      
 12 13  1  0      
 13 14  1  0      
 14 15  1  0      
 15 16  2  0      
 16 11  1  0      
 17 18  2  0      
 18 19  1  0      
 19 14  2  0      
 13 20  2  0      
 20 17  1  0      
 12 21  1  0      
 22 16  1  0      
 23  7  1  0      
 23 10  1  0      
 23 24  1  0      
 24 25  1  0      
 21 26  2  0      
 26 27  1  0      
 27 28  2  0      
 28 29  1  0      
 29 30  2  0      
 30 21  1  0      
 24 31  2  0      
 25 32  1  0      
 33 34  2  0      
 34 35  1  0      
 35 36  2  0      
 36 37  1  0      
 37 38  2  0      
 38 33  1  0      
 33 39  1  0      
 39 40  2  0      
 40 41  1  0      
 41 42  2  0      
 41 43  1  0      
 43 44  2  0      
 44 45  1  0      
 45 46  1  0      
 46 47  1  0      
 47 48  2  0      
 48 43  1  0      
 49 50  2  0      
 50 51  1  0      
 51 46  2  0      
 45 52  2  0      
 52 49  1  0      
 44 53  1  0      
 54 48  1  0      
 53 55  2  0      
 55 56  1  0      
 56 57  2  0      
 57 58  1  0      
 58 59  2  0      
 59 53  1  0      
M  END
$$$$
