Untitled ACS Document 1996-1
  corina  02131209523D 1   1.00000     0.00000 
CORINA 3.49 0024  01.06.2011
 25 28  0  0  0  0  0  0  0  0999 V2000
   -0.0175    1.4360    0.0099 O   0  0  0  0  0  0  0  0  0  0  0  0
    0.0021   -0.0041    0.0020 C   0  0  0  0  0  0  0  0  0  0  0  0
    0.9541   -0.4325    1.0926 C   0  0  0  0  0  0  0  0  0  0  0  0
    2.0518    0.3705    1.4148 N   0  0  0  0  0  0  0  0  0  0  0  0
    2.2634    1.5693    0.7326 C   0  0  0  0  0  0  0  0  0  0  0  0
    1.1806    2.0838    0.0020 C   0  0  0  0  0  0  0  0  0  0  0  0
    3.4687    2.2352    0.7569 C   0  0  0  0  0  0  0  0  0  0  0  0
    3.6182    3.4220    0.0384 C   0  0  0  0  0  0  0  0  0  0  0  0
    2.5479    3.9245   -0.6990 C   0  0  0  0  0  0  0  0  0  0  0  0
    1.3388    3.2579   -0.7149 C   0  0  0  0  0  0  0  0  0  0  0  0
    1.9520   -1.4011    2.6079 O   0  0  0  0  0  0  0  0  0  0  0  0
    0.9939   -1.4468    1.8568 N   0  0  0  0  0  0  0  0  0  0  0  0
    2.6759   -0.2823    2.3924 C   0  0  0  0  0  0  0  0  0  0  0  0
    3.6893    0.0587    2.9719 O   0  0  0  0  0  0  0  0  0  0  0  0
    4.9125    4.1467    0.0600 C   0  0  0  0  0  0  0  0  0  0  0  0
    5.5085    4.5496   -1.1335 C   0  0  0  0  0  0  0  0  0  0  0  0
    6.7097    5.2285   -1.1075 C   0  0  0  0  0  0  0  0  0  0  0  0
    7.3229    5.5096    0.1005 C   0  0  0  0  0  0  0  0  0  0  0  0
    6.7372    5.1123    1.2884 C   0  0  0  0  0  0  0  0  0  0  0  0
    5.5345    4.4325    1.2748 C   0  0  0  0  0  0  0  0  0  0  0  0
    4.7997    3.9346    2.7667 Cl  0  0  0  0  0  0  0  0  0  0  0  0
    7.3552    5.6641   -2.3976 C   0  0  0  0  0  0  0  0  0  0  0  0
    6.9057    6.9454   -2.7346 F   0  0  0  0  0  0  0  0  0  0  0  0
    8.7452    5.6840   -2.2402 F   0  0  0  0  0  0  0  0  0  0  0  0
    7.0140    4.7674   -3.4158 F   0  0  0  0  0  0  0  0  0  0  0  0
  1  2  1  0      
  2  3  1  0      
  3  4  1  0      
  4  5  1  0      
  5  6  1  0      
  1  6  1  0      
  7  8  1  0      
  8  9  2  0      
  9 10  1  0      
  6 10  2  0      
  5  7  2  0      
 11 12  1  0      
 11 13  1  0      
  3 12  2  0      
  4 13  1  0      
 13 14  2  0      
 15 16  1  0      
 16 17  2  0      
 17 18  1  0      
 18 19  2  0      
 19 20  1  0      
 15 20  2  0      
  8 15  1  0      
 20 21  1  0      
 17 22  1  0      
 22 23  1  0      
 22 24  1  0      
 22 25  1  0      
M  STY  1   1 SUP
M  SLB  1   1   1
M  SAL   1  4  22  23  24  25
M  SBL   1  1  25
M  SMT   1 ^CF3
M  SBV   1  25    0.7145    0.4125
M  END
$$$$
