m430.skc
  corina  12080917083D 1   1.00000     0.00000 
CORINA 3.46 0026  05.08.2008
 32 36  0  0  0  0  0  0  0  0999 V2000
   -0.6094    0.3995    0.0333 C   0  0  0  0  0  0  0  0  0  0  0  0
    1.7482    0.8653   -0.0659 C   0  0  0  0  0  0  0  0  0  0  0  0
    0.4246    1.2885   -0.0359 C   0  0  0  0  0  0  0  0  0  0  0  0
   -0.3486   -0.9813    0.0760 C   0  0  0  0  0  0  0  0  0  0  0  0
   -1.3780   -1.9360    0.1469 C   0  0  0  0  0  0  0  0  0  0  0  0
   -1.0745   -3.2667    0.1862 C   0  0  0  0  0  0  0  0  0  0  0  0
    0.2409   -3.7148    0.1574 C   0  0  0  0  0  0  0  0  0  0  0  0
    2.0479   -0.4883   -0.0256 C   0  0  0  0  0  0  0  0  0  0  0  0
    0.9905   -1.4234    0.0461 C   0  0  0  0  0  0  0  0  0  0  0  0
    1.2856   -2.8051    0.0876 C   0  0  0  0  0  0  0  0  0  0  0  0
    2.6936   -3.2272    0.0547 C   0  0  0  0  0  0  0  0  0  0  0  0
    3.6776   -2.3106   -0.0138 N   0  0  0  0  0  0  0  0  0  0  0  0
    3.4306   -0.9875   -0.0543 C   0  0  0  0  0  0  0  0  0  0  0  0
    4.3563   -0.2011   -0.1159 O   0  0  0  0  0  0  0  0  0  0  0  0
    2.9710   -4.4108    0.0898 O   0  0  0  0  0  0  0  0  0  0  0  0
    5.0685   -2.7698   -0.0447 C   0  0  0  0  0  0  0  0  0  0  0  0
    5.4962   -2.9804   -1.4743 C   0  0  0  0  0  0  0  0  0  0  0  0
    6.5867   -2.4094   -1.9226 C   0  0  0  0  0  0  0  0  0  0  0  0
    7.5039   -1.6853   -0.9711 C   0  0  0  0  0  0  0  0  0  0  0  0
    8.8700   -2.2055   -1.1166 N   0  0  0  0  0  0  0  0  0  0  0  0
    9.8322   -1.3707   -0.3840 C   0  0  0  0  0  0  0  0  0  0  0  0
   11.2279   -1.9891   -0.4944 C   0  0  0  0  0  0  0  0  0  0  0  0
   11.6017   -2.0984   -1.9114 N   0  0  0  0  0  0  0  0  0  0  0  0
   10.6394   -2.9333   -2.6441 C   0  0  0  0  0  0  0  0  0  0  0  0
    9.2438   -2.3148   -2.5336 C   0  0  0  0  0  0  0  0  0  0  0  0
   12.9005   -2.5931   -2.0497 C   0  0  0  0  0  0  0  0  0  0  0  0
   13.4460   -2.7719   -3.3142 C   0  0  0  0  0  0  0  0  0  0  0  0
   14.7318   -3.2617   -3.4474 C   0  0  0  0  0  0  0  0  0  0  0  0
   15.4746   -3.5734   -2.3222 C   0  0  0  0  0  0  0  0  0  0  0  0
   14.9334   -3.3962   -1.0620 C   0  0  0  0  0  0  0  0  0  0  0  0
   13.6516   -2.9019   -0.9223 C   0  0  0  0  0  0  0  0  0  0  0  0
   15.4151   -3.4863   -5.0274 Cl  0  0  0  0  0  0  0  0  0  0  0  0
  1  4  1  0  0  0
  8  2  2  0  0  0
  2  3  1  0  0  0
  3  1  2  0  0  0
  9  4  1  0  0  0
  4  5  2  0  0  0
  5  6  1  0  0  0
  6  7  2  0  0  0
  7 10  1  0  0  0
  8  9  1  0  0  0
  9 10  2  0  0  0
 10 11  1  0  0  0
 11 12  1  0  0  0
 12 13  1  0  0  0
 13  8  1  0  0  0
 13 14  2  0  0  0
 11 15  2  0  0  0
 12 16  1  0  0  0
 16 17  1  0  0  0
 17 18  2  0  0  0
 18 19  1  0  0  0
 19 20  1  0  0  0
 20 21  1  0  0  0
 20 25  1  0  0  0
 21 22  1  0  0  0
 22 23  1  0  0  0
 23 24  1  0  0  0
 24 25  1  0  0  0
 23 26  1  0  0  0
 26 27  2  0  0  0
 27 28  1  0  0  0
 28 29  2  0  0  0
 29 30  1  0  0  0
 30 31  2  0  0  0
 31 26  1  0  0  0
 28 32  1  0  0  0
M  END
$$$$
