Untitled Document-1
  corina  06041405173D 1   1.00000     0.00000 
CORINA 3.49 0023  12.04.2013
 23 25  0  0  0  0  0  0  0  0999 V2000
   -0.0180    1.4727    0.0101 C   0  0  0  0  0  0  0  0  0  0  0  0
    0.0021   -0.0041    0.0020 C   0  0  0  0  0  0  0  0  0  0  0  0
    1.2218   -0.6862   -0.0133 C   0  0  0  0  0  0  0  0  0  0  0  0
    1.2405   -2.0572   -0.0208 C   0  0  0  0  0  0  0  0  0  0  0  0
    0.0396   -2.7726   -0.0132 C   0  0  0  0  0  0  0  0  0  0  0  0
   -1.1802   -2.0901    0.0021 C   0  0  0  0  0  0  0  0  0  0  0  0
   -1.1986   -0.7192    0.0154 C   0  0  0  0  0  0  0  0  0  0  0  0
    1.0265    2.0949    0.0035 O   0  0  0  0  0  0  0  0  0  0  0  0
   -1.1942    2.1307    0.0193 N   0  0  0  0  0  0  0  0  0  0  0  0
   -1.2127    3.4965    0.0268 N   0  0  0  0  0  0  0  0  0  0  0  0
   -1.0172   -5.0616   -0.0160 O   0  0  0  0  0  0  0  0  0  0  0  0
    0.0596   -4.2485   -0.0218 C   0  0  0  0  0  0  0  0  0  0  0  0
    1.1292   -5.0114   -0.0366 N   0  0  0  0  0  0  0  0  0  0  0  0
    0.7724   -6.2475   -0.0402 N   0  0  0  0  0  0  0  0  0  0  0  0
   -0.5409   -6.3226   -0.0278 C   0  0  0  0  0  0  0  0  0  0  0  0
   -1.3450   -7.5601   -0.0266 C   0  0  0  0  0  0  0  0  0  0  0  0
   -0.7131   -8.8110   -0.0399 C   0  0  0  0  0  0  0  0  0  0  0  0
   -1.4773   -9.9666   -0.0329 C   0  0  0  0  0  0  0  0  0  0  0  0
   -2.8569   -9.8849   -0.0129 C   0  0  0  0  0  0  0  0  0  0  0  0
   -3.4850   -8.6514   -0.0001 C   0  0  0  0  0  0  0  0  0  0  0  0
   -2.7392   -7.4912   -0.0064 C   0  0  0  0  0  0  0  0  0  0  0  0
    0.6422   -8.8901   -0.0601 O   0  0  0  0  0  0  0  0  0  0  0  0
    1.2156  -10.1989   -0.0727 C   0  0  0  0  0  0  0  0  0  0  0  0
  1  2  1  0      
  2  3  1  0      
  3  4  2  0      
  4  5  1  0      
  5  6  2  0      
  6  7  1  0      
  2  7  2  0      
  9 10  1  0      
  1  8  2  0      
  1  9  1  0      
 11 12  1  0      
 12 13  2  0      
 13 14  1  0      
 14 15  2  0      
 11 15  1  0      
 16 17  1  0      
 17 18  2  0      
 18 19  1  0      
 19 20  2  0      
 20 21  1  0      
 16 21  2  0      
 22 23  1  0      
 17 22  1  0      
 15 16  1  0      
  5 12  1  0      
M  END
$$$$
