
  corina  12080917083D 1   1.00000     0.00000 
CORINA 3.46 0026  05.08.2008
 18 19  0  0  0  0  0  0  0  0999 V2000
   -0.0896    1.3547    0.0190 C   0  0  0  0  0  0  0  0  0  0  0  0
    1.0820    2.0862    0.0275 C   0  0  0  0  0  0  0  0  0  0  0  0
    2.3034    1.4378    0.0195 C   0  0  0  0  0  0  0  0  0  0  0  0
    2.3553    0.0565    0.0033 C   0  0  0  0  0  0  0  0  0  0  0  0
    1.1862   -0.6798   -0.0048 C   0  0  0  0  0  0  0  0  0  0  0  0
   -0.0402   -0.0318    0.0028 C   0  0  0  0  0  0  0  0  0  0  0  0
   -1.1916   -0.7538   -0.0052 O   0  0  0  0  0  0  0  0  0  0  0  0
    3.5802    2.2384    0.0278 C   0  0  3  0  0  0  0  0  0  0  0  0
    1.2434   -2.1856   -0.0229 C   0  0  0  0  0  0  0  0  0  0  0  0
    0.8805   -2.6734   -1.3602 N   0  0  3  0  0  0  0  0  0  0  0  0
    1.0103   -4.1301   -1.4407 C   0  0  0  0  0  0  0  0  0  0  0  0
    0.2286   -4.6565   -2.6492 C   0  0  0  0  0  0  0  0  0  0  0  0
    0.9480   -3.9404   -4.1586 S   0  0  0  0  0  0  0  0  0  0  0  0
    0.9701   -2.1660   -3.7588 C   0  0  0  0  0  0  0  0  0  0  0  0
    1.6497   -1.9825   -2.3976 C   0  0  0  0  0  0  0  0  0  0  0  0
    3.2458    3.7314    0.0450 C   0  0  0  0  0  0  0  0  0  0  0  0
    4.3961    1.8842    1.2727 C   0  0  0  0  0  0  0  0  0  0  0  0
    4.3947    1.9126   -1.2256 C   0  0  0  0  0  0  0  0  0  0  0  0
  5  9  1  0  0  0  0
  4  5  1  0  0  0  0
  9 10  1  0  0  0  0
 10 11  1  0  0  0  0
  2  3  1  0  0  0  0
  5  6  2  0  0  0  0
  6  1  1  0  0  0  0
  1  2  2  0  0  0  0
  6  7  1  0  0  0  0
 10 15  1  0  0  0  0
 11 12  1  0  0  0  0
 12 13  1  0  0  0  0
 13 14  1  0  0  0  0
 14 15  1  0  0  0  0
  3  4  2  0  0  0  0
  8 16  1  0  0  0  0
  3  8  1  0  0  0  0
  8 17  1  0  0  0  0
  8 18  1  0  0  0  0
M  END
$$$$
