
  corina  02131209583D 1   1.00000     0.00000 
CORINA 3.49 0024  01.06.2011
 30 31  0  0  0  0  0  0  0  0  1 V2000
   -0.0207    1.3378   -0.0341 C   0  0  0  0  0  0  0  0  0  0  0  0
    0.0021   -0.0041    0.0020 O   0  0  0  0  0  0  0  0  0  0  0  0
    5.0090   -3.5955   -1.0660 C   0  0  0  0  0  0  0  0  0  0  0  0
   10.3660   -6.2434   -1.5982 S   0  0  0  0  0  0  0  0  0  0  0  0
    7.6542   -6.0950   -1.9398 C   0  0  0  0  0  0  0  0  0  0  0  0
    8.7926   -5.4659   -1.4416 C   0  0  0  0  0  0  0  0  0  0  0  0
    6.4282   -5.4932   -1.8199 C   0  0  0  0  0  0  0  0  0  0  0  0
    8.6906   -4.2232   -0.8209 C   0  0  0  0  0  0  0  0  0  0  0  0
    6.3215   -4.2444   -1.1962 C   0  0  0  0  0  0  0  0  0  0  0  0
    7.4681   -3.6150   -0.6972 C   0  0  0  0  0  0  0  0  0  0  0  0
    3.3147   -1.2427    0.8482 C   0  0  0  0  0  0  0  0  0  0  0  0
    3.6897   -1.8282   -0.3635 C   0  0  0  0  0  0  0  0  0  0  0  0
    2.0832   -0.6349    0.9656 C   0  0  0  0  0  0  0  0  0  0  0  0
    2.8137   -1.7947   -1.4513 C   0  0  0  0  0  0  0  0  0  0  0  0
    1.2156   -0.6040   -0.1183 C   0  0  0  0  0  0  0  0  0  0  0  0
    1.5842   -1.1848   -1.3248 C   0  0  0  0  0  0  0  0  0  0  0  0
    4.9115   -2.4322   -0.4847 N   0  0  0  0  0  0  0  0  0  0  0  0
    1.0149    1.9586   -0.0793 O   0  0  0  0  0  0  0  0  0  0  0  0
   -1.3381    2.0696   -0.0246 C   0  0  0  0  0  0  0  0  0  0  0  0
   -1.0842    3.5776   -0.0714 C   0  0  0  0  0  0  0  0  0  0  0  0
   -2.4216    4.3206   -0.0617 C   0  0  0  0  0  0  0  0  0  0  0  0
   -2.1677    5.8286   -0.1086 C   0  0  0  0  0  0  0  0  0  0  0  0
   -3.5052    6.5715   -0.0989 C   0  0  0  0  0  0  0  0  0  0  0  0
   -3.2513    8.0796   -0.1458 C   0  0  0  0  0  0  0  0  0  0  0  0
   -4.5888    8.8225   -0.1361 C   0  0  0  0  0  0  0  0  0  0  0  0
   -4.3348   10.3306   -0.1830 C   0  0  0  0  0  0  0  0  0  0  0  0
   -5.6723   11.0735   -0.1733 C   0  0  0  0  0  0  0  0  0  0  0  0
   -5.4184   12.5816   -0.2201 C   0  0  0  0  0  0  0  0  0  0  0  0
   -6.7559   13.3245   -0.2104 C   0  0  0  0  0  0  0  0  0  0  0  0
   11.4889   -5.0535   -0.8148 C   0  0  0  0  0  0  0  0  0  0  0  0
  6  5  1  0  0  0  0
  7  5  2  0  0  0  0
  8  6  2  0  0  0  0
  9  7  1  0  0  0  0
 10  8  1  0  0  0  0
 10  9  2  0  0  0  0
  4  6  1  0  0  0  0
  3  9  1  0  0  0  0
 12 11  1  0  0  0  0
 13 11  2  0  0  0  0
 14 12  2  0  0  0  0
 15 13  1  0  0  0  0
 16 14  1  0  0  0  0
 16 15  2  0  0  0  0
 12 17  1  0  0  0  0
  3 17  2  0  0  0  0
  2 15  1  0  0  0  0
  1  2  1  0  0  0  0
  1 18  2  0  0  0  0
 19  1  1  0  0  0  0
 20 19  1  0  0  0  0
 21 20  1  0  0  0  0
 22 21  1  0  0  0  0
 23 22  1  0  0  0  0
 24 23  1  0  0  0  0
 25 24  1  0  0  0  0
 26 25  1  0  0  0  0
 27 26  1  0  0  0  0
 28 27  1  0  0  0  0
 29 28  1  0  0  0  0
 30  4  1  0  0  0  0
M  END
$$$$
