
  corina  03041010093D 1   1.00000     0.00000 
CORINA 3.46 0026  05.08.2008
 49 50  0  0  0  0  0  0  0  0999 V2000
    0.0079    1.4219   -0.0298 C   0  0  0  0  0  0  0  0  0  0  0  0
    2.3891   -0.0334    0.0157 C   0  0  0  0  0  0  0  0  0  0  0  0
    2.4221    1.3384   -0.2221 C   0  0  0  0  0  0  0  0  0  0  0  0
    1.2196    2.0735   -0.2444 C   0  0  0  0  0  0  0  0  0  0  0  0
    1.2448    3.5282   -0.4946 C   0  0  0  0  0  0  0  0  0  0  0  0
    3.7116    2.0199   -0.4505 C   0  0  0  0  0  0  0  0  0  0  0  0
    0.6685    4.3728    0.3829 O   0  0  0  0  0  0  0  0  0  0  0  0
    4.8452    1.2993   -0.5551 O   0  0  0  0  0  0  0  0  0  0  0  0
    6.0762    2.0359   -0.7795 C   0  0  0  0  0  0  0  0  0  0  0  0
    0.7315    5.7898    0.0725 C   0  0  0  0  0  0  0  0  0  0  0  0
    1.7851    3.9638   -1.4917 O   0  0  0  0  0  0  0  0  0  0  0  0
    3.7505    3.2305   -0.5442 O   0  0  0  0  0  0  0  0  0  0  0  0
    1.1776   -0.6705    0.2299 C   0  0  0  0  0  0  0  0  0  0  0  0
   -0.0129    0.0568    0.2056 C   0  0  0  0  0  0  0  0  0  0  0  0
   -0.2600   -9.2500   -0.4431 C   0  0  0  0  0  0  0  0  0  0  0  0
   -1.0422   -9.9982    0.6382 C   0  0  0  0  0  0  0  0  0  0  0  0
    0.4969   -8.1976    0.1582 O   0  0  0  0  0  0  0  0  0  0  0  0
   -2.3587  -10.2846    0.1617 O   0  0  0  0  0  0  0  0  0  0  0  0
    1.4298   -7.5739   -0.7266 C   0  0  0  0  0  0  0  0  0  0  0  0
   -3.3559  -10.3040    1.1850 C   0  0  0  0  0  0  0  0  0  0  0  0
    2.2459   -6.5333    0.0428 C   0  0  0  0  0  0  0  0  0  0  0  0
   -4.7431  -10.2052    0.5472 C   0  0  0  0  0  0  0  0  0  0  0  0
    2.0102   -5.2375   -0.5119 O   0  0  0  0  0  0  0  0  0  0  0  0
   -5.7289   -9.8369    1.5703 N   0  0  3  0  0  0  0  0  0  0  0  0
    2.2379   -4.1632    0.4023 C   0  0  0  0  0  0  0  0  0  0  0  0
    2.0190   -2.8283   -0.3127 C   0  0  0  0  0  0  0  0  0  0  0  0
    1.1478   -2.0073    0.4670 O   0  0  0  0  0  0  0  0  0  0  0  0
   -7.6877   -4.2530    1.1650 C   0  0  0  0  0  0  0  0  0  0  0  0
   -7.7077   -5.5258    2.0138 C   0  0  0  0  0  0  0  0  0  0  0  0
   -6.8421   -3.2813    1.7838 O   0  0  0  0  0  0  0  0  0  0  0  0
   -7.2556   -6.6300    1.2275 O   0  0  0  0  0  0  0  0  0  0  0  0
   -6.3425   -2.2890    0.8850 C   0  0  0  0  0  0  0  0  0  0  0  0
   -7.0924   -7.8418    1.9671 C   0  0  0  0  0  0  0  0  0  0  0  0
   -5.6126   -1.2034    1.6784 C   0  0  0  0  0  0  0  0  0  0  0  0
   -6.7875   -8.9905    1.0037 C   0  0  0  0  0  0  0  0  0  0  0  0
   -4.5723   -0.6441    0.8741 O   0  0  0  0  0  0  0  0  0  0  0  0
   -3.3253   -0.4969    1.5564 C   0  0  0  0  0  0  0  0  0  0  0  0
   -2.3376    0.2501    0.6581 C   0  0  0  0  0  0  0  0  0  0  0  0
   -1.1969   -0.5754    0.4138 O   0  0  0  0  0  0  0  0  0  0  0  0
   -6.2963  -11.0319    2.2089 C   0  0  0  0  0  0  0  0  0  0  0  0
   -7.1233  -10.6152    3.4269 C   0  0  0  0  0  0  0  0  0  0  0  0
   -7.6892  -11.8069    4.0638 N   0  0  0  0  0  0  0  0  0  0  0  0
   -8.4593  -11.6822    5.1629 C   0  0  0  0  0  0  0  0  0  0  0  0
   -8.9794  -12.7775    5.7483 O   0  0  0  0  0  0  0  0  0  0  0  0
   -8.6841  -10.5814    5.6255 O   0  0  0  0  0  0  0  0  0  0  0  0
   -9.7990  -12.5679    6.9284 C   0  0  3  0  0  0  0  0  0  0  0  0
  -10.9965  -11.6866    6.5676 C   0  0  0  0  0  0  0  0  0  0  0  0
  -10.2974  -13.9173    7.4494 C   0  0  0  0  0  0  0  0  0  0  0  0
   -8.9667  -11.8789    8.0116 C   0  0  0  0  0  0  0  0  0  0  0  0
 13 14  1  0  0  0  0
 14  1  2  0  0  0  0
 13  2  2  0  0  0  0
  1  4  1  0  0  0  0
  2  3  1  0  0  0  0
  3  4  2  0  0  0  0
  4  5  1  0  0  0  0
  3  6  1  0  0  0  0
  5  7  1  0  0  0  0
  6  8  1  0  0  0  0
  8  9  1  0  0  0  0
  7 10  1  0  0  0  0
  5 11  2  0  0  0  0
  6 12  2  0  0  0  0
 27 13  1  0  0  0  0
 15 16  1  0  0  0  0
 15 17  1  0  0  0  0
 16 18  1  0  0  0  0
 18 20  1  0  0  0  0
 20 22  1  0  0  0  0
 21 23  1  0  0  0  0
 22 24  1  0  0  0  0
 23 25  1  0  0  0  0
 25 26  1  0  0  0  0
 19 21  1  0  0  0  0
 27 26  1  0  0  0  0
 19 17  1  0  0  0  0
 28 29  1  0  0  0  0
 28 30  1  0  0  0  0
 29 31  1  0  0  0  0
 31 33  1  0  0  0  0
 33 35  1  0  0  0  0
 34 36  1  0  0  0  0
 35 24  1  0  0  0  0
 36 37  1  0  0  0  0
 37 38  1  0  0  0  0
 32 34  1  0  0  0  0
 39 38  1  0  0  0  0
 32 30  1  0  0  0  0
 14 39  1  0  0  0  0
 24 40  1  0  0  0  0
 40 41  1  0  0  0  0
 41 42  1  0  0  0  0
 42 43  1  0  0  0  0
 43 44  1  0  0  0  0
 43 45  2  0  0  0  0
 44 46  1  0  0  0  0
 46 47  1  0  0  0  0
 46 48  1  0  0  0  0
 46 49  1  0  0  0  0
M  END
$$$$
