1-Hydroxy-3-(3-methylbut-2-enyloxy)anthracene-9,10-dione.cdx
  corina  02261609583D 1   1.00000     0.00000 
CORINA 3.60 0026  08.12.2014
 23 25  0  0  0  0  0  0  0  0999 V2000
   -0.0445   -0.6246    2.2334 C   0  0  0  0  0  0  0  0  0  0  0  0
    0.2498   -1.9906    2.0777 C   0  0  0  0  0  0  0  0  0  0  0  0
    1.6160   -2.4150    1.7076 C   0  0  0  0  0  0  0  0  0  0  0  0
    2.6710   -1.4002    1.5021 C   0  0  0  0  0  0  0  0  0  0  0  0
    2.3729   -0.0322    1.6588 C   0  0  0  0  0  0  0  0  0  0  0  0
    1.0120    0.3889    2.0271 C   0  0  0  0  0  0  0  0  0  0  0  0
   -1.3323   -0.2335    2.5877 C   0  0  0  0  0  0  0  0  0  0  0  0
   -2.3138   -1.1889    2.7845 C   0  0  0  0  0  0  0  0  0  0  0  0
   -2.0243   -2.5326    2.6317 C   0  0  0  0  0  0  0  0  0  0  0  0
   -0.7508   -2.9385    2.2742 C   0  0  0  0  0  0  0  0  0  0  0  0
    3.9577   -1.7903    1.1550 C   0  0  0  0  0  0  0  0  0  0  0  0
    4.9488   -0.8301    0.9628 C   0  0  0  0  0  0  0  0  0  0  0  0
    4.6599    0.5162    1.1163 C   0  0  0  0  0  0  0  0  0  0  0  0
    3.3778    0.9233    1.4629 C   0  0  0  0  0  0  0  0  0  0  0  0
    0.7563    1.5700    2.1614 O   0  0  0  0  0  0  0  0  0  0  0  0
    1.8717   -3.5952    1.5729 O   0  0  0  0  0  0  0  0  0  0  0  0
    3.1002    2.2420    1.6114 O   0  0  0  0  0  0  0  0  0  0  0  0
    6.2049   -1.2160    0.6236 O   0  0  0  0  0  0  0  0  0  0  0  0
    7.1742   -0.1819    0.4414 C   0  0  0  0  0  0  0  0  0  0  0  0
    8.4998   -0.7957    0.0711 C   0  0  0  0  0  0  0  0  0  0  0  0
    9.6000   -0.3726    0.6427 C   0  0  0  0  0  0  0  0  0  0  0  0
    9.5580    0.8116    1.5738 C   0  0  0  0  0  0  0  0  0  0  0  0
   10.9076   -1.0700    0.3691 C   0  0  0  0  0  0  0  0  0  0  0  0
  1  2  2  0  0  0
  2  3  1  0  0  0
  3  4  1  0  0  0
  4  5  2  0  0  0
  5  6  1  0  0  0
  6  1  1  0  0  0
  1  7  1  0  0  0
  7  8  2  0  0  0
  8  9  1  0  0  0
  9 10  2  0  0  0
 10  2  1  0  0  0
  4 11  1  0  0  0
 11 12  2  0  0  0
 12 13  1  0  0  0
 13 14  2  0  0  0
 14  5  1  0  0  0
  6 15  2  0  0  0
  3 16  2  0  0  0
 14 17  1  0  0  0
 12 18  1  0  0  0
 18 19  1  0  0  0
 19 20  1  0  0  0
 20 21  2  0  0  0
 21 22  1  0  0  0
 21 23  1  0  0  0
M  END
$$$$
