m494.mol
  corina  12080917093D 1   1.00000     0.00000 
CORINA 3.46 0026  05.08.2008
 24 25  0  0  0  0  0  0  0  0999 V2000
    0.6055   -0.3423   -2.8692 C   0  0  0  0  0  0  0  0  0  0  0  0
   -0.0261   -0.6800   -1.6868 C   0  0  0  0  0  0  0  0  0  0  0  0
    0.1966    0.0681   -0.5460 C   0  0  0  0  0  0  0  0  0  0  0  0
    1.0513    1.1538   -0.5874 C   0  0  0  0  0  0  0  0  0  0  0  0
    1.6837    1.4910   -1.7695 C   0  0  0  0  0  0  0  0  0  0  0  0
    1.4598    0.7436   -2.9106 C   0  0  0  0  0  0  0  0  0  0  0  0
    2.6151    2.6748   -1.8147 C   0  0  0  0  0  0  0  0  0  0  0  0
    3.9803    2.2362   -1.4958 N   0  0  0  0  0  0  0  0  0  0  0  0
    4.9520    3.3060   -1.7592 C   0  0  0  0  0  0  0  0  0  0  0  0
    4.0728    1.7717   -0.1053 C   0  0  0  0  0  0  0  0  0  0  0  0
    5.3795    0.9999    0.0889 C   0  0  0  0  0  0  0  0  0  0  0  0
    5.4164    0.4310    1.4460 C   0  0  0  0  0  0  0  0  0  0  0  0
    5.4448   -0.0081    2.4933 N   0  0  0  0  0  0  0  0  0  0  0  0
    5.1649    3.4276   -3.2036 N   0  0  0  0  0  0  0  0  0  0  0  0
    4.5539    4.2592   -3.9688 N   0  0  0  0  0  0  0  0  0  0  0  0
    4.9693    4.1190   -5.2123 C   0  0  0  0  0  0  0  0  0  0  0  0
    5.9407    3.0894   -5.2093 C   0  0  0  0  0  0  0  0  0  0  0  0
    6.0358    2.6856   -3.9210 C   0  0  0  0  0  0  0  0  0  0  0  0
    6.9396    1.6040   -3.3877 C   0  0  0  0  0  0  0  0  0  0  0  0
    4.5091    4.8889   -6.3842 C   0  0  0  0  0  0  0  0  0  0  0  0
    4.9749    4.6598   -7.4826 O   0  0  0  0  0  0  0  0  0  0  0  0
    3.5724    5.8459   -6.2359 O   0  0  0  0  0  0  0  0  0  0  0  0
    3.1676    6.5630   -7.4318 C   0  0  0  0  0  0  0  0  0  0  0  0
    2.1048    7.6019   -7.0684 C   0  0  0  0  0  0  0  0  0  0  0  0
  1  2  2  0  0  0
  2  3  1  0  0  0
  3  4  2  0  0  0
  4  5  1  0  0  0
  5  6  2  0  0  0
  6  1  1  0  0  0
  5  7  1  0  0  0
  7  8  1  0  0  0
  8  9  1  0  0  0
  8 10  1  0  0  0
 10 11  1  0  0  0
 11 12  1  0  0  0
 12 13  3  0  0  0
  9 14  1  0  0  0
 14 15  1  0  0  0
 15 16  2  0  0  0
 16 17  1  0  0  0
 17 18  2  0  0  0
 18 14  1  0  0  0
 18 19  1  0  0  0
 16 20  1  0  0  0
 20 21  2  0  0  0
 20 22  1  0  0  0
 22 23  1  0  0  0
 23 24  1  0  0  0
M  END
$$$$
