
  corina  12080917093D 1   1.00000     0.00000 
CORINA 3.46 0026  05.08.2008
 21 24  0  0  0  0  0  0  0  0999 V2000
   -0.0167    1.3837    0.0096 C   0  0  0  0  0  0  0  0  0  0  0  0
   -2.4249   -0.0692    0.0372 C   0  0  0  0  0  0  0  0  0  0  0  0
   -1.2117   -0.7369    0.0096 C   0  0  0  0  0  0  0  0  0  0  0  0
    0.0021   -0.0041    0.0020 C   0  0  0  0  0  0  0  0  0  0  0  0
    1.2516   -0.7787   -0.0135 C   0  0  0  0  0  0  0  0  0  0  0  0
    1.1751   -2.1248   -0.0196 N   0  0  0  0  0  0  0  0  0  0  0  0
    0.0714   -2.7714   -0.0130 N   0  0  0  0  0  0  0  0  0  0  0  0
   -1.1147   -2.2080    0.0008 C   0  0  0  0  0  0  0  0  0  0  0  0
   -1.2332    2.0518    0.0306 C   0  0  0  0  0  0  0  0  0  0  0  0
   -2.4376    1.3220    0.0440 C   0  0  0  0  0  0  0  0  0  0  0  0
   -1.5430    3.4016    0.0423 N   0  0  0  0  0  0  0  0  0  0  0  0
   -2.9146    3.5789    0.0629 C   0  0  0  0  0  0  0  0  0  0  0  0
   -3.5265    2.3166    0.0649 C   0  0  0  0  0  0  0  0  0  0  0  0
   -4.9158    2.2149    0.0843 C   0  0  0  0  0  0  0  0  0  0  0  0
   -5.6857    3.3578    0.1014 C   0  0  0  0  0  0  0  0  0  0  0  0
   -5.0826    4.6063    0.0989 C   0  0  0  0  0  0  0  0  0  0  0  0
   -3.7095    4.7214    0.0799 C   0  0  0  0  0  0  0  0  0  0  0  0
    1.2750    2.1599    0.0015 C   0  0  0  0  0  0  0  0  0  0  0  0
   -2.3295   -3.0331    0.0075 C   0  0  0  0  0  0  0  0  0  0  0  0
   -2.2411   -4.2429    0.0002 O   0  0  0  0  0  0  0  0  0  0  0  0
    2.3315   -0.2170   -0.0212 O   0  0  0  0  0  0  0  0  0  0  0  0
  1  4  2  0  0  0  0
 10 13  1  0  0  0  0
 12 11  1  0  0  0  0
 11  9  1  0  0  0  0
  3  2  2  0  0  0  0
  2 10  1  0  0  0  0
 12 13  2  0  0  0  0
  3  4  1  0  0  0  0
 13 14  1  0  0  0  0
  3  8  1  0  0  0  0
 14 15  2  0  0  0  0
  4  5  1  0  0  0  0
 15 16  1  0  0  0  0
  5  6  1  0  0  0  0
 16 17  2  0  0  0  0
 17 12  1  0  0  0  0
  6  7  1  0  0  0  0
  1 18  1  0  0  0  0
  7  8  2  0  0  0  0
  8 19  1  0  0  0  0
  9 10  2  0  0  0  0
 19 20  2  0  0  0  0
  9  1  1  0  0  0  0
  5 21  2  0  0  0  0
M  END
$$$$
