
  corina  12080917093D 1   1.00000     0.00000 
CORINA 3.46 0026  05.08.2008
 15 15  0  0  0  0  0  0  0  0999 V2000
    1.9090    1.4388    1.2369 N   0  0  0  0  0  0  0  0  0  0  0  0
    1.8588    0.1246    1.4061 C   0  0  0  0  0  0  0  0  0  0  0  0
    1.0386   -0.6250    0.6783 N   0  0  0  0  0  0  0  0  0  0  0  0
    0.2666   -0.1094   -0.2126 N   0  0  0  0  0  0  0  0  0  0  0  0
    1.1223    2.0099    0.3213 C   0  0  0  0  0  0  0  0  0  0  0  0
    0.2674    1.1922   -0.4312 C   0  0  0  0  0  0  0  0  0  0  0  0
    3.4881    3.3821    0.1470 N   0  0  0  0  0  0  0  0  0  0  0  0
    2.2857    4.0995    0.0993 N   0  0  0  0  0  0  0  0  0  0  0  0
    1.1517    3.4672    0.1070 C   0  0  0  0  0  0  0  0  0  0  0  0
   -0.1344    4.2240   -0.1033 C   0  0  0  0  0  0  0  0  0  0  0  0
    4.6629    4.0394    0.2122 C   0  0  0  0  0  0  0  0  0  0  0  0
    2.8939   -0.6372    2.6116 S   0  0  0  0  0  0  0  0  0  0  0  0
    2.4067   -2.3671    2.3961 C   0  0  0  0  0  0  0  0  0  0  0  0
    6.1323    3.1627    0.2704 S   0  0  0  0  0  0  0  0  0  0  0  0
    4.6810    5.3869    0.2316 N   0  0  0  0  0  0  0  0  0  0  0  0
  3  4  2  0  0  0  0
  7  8  1  0  0  0  0
  8  9  2  0  0  0  0
  9  5  1  0  0  0  0
  4  6  1  0  0  0  0
  9 10  1  0  0  0  0
  5  6  2  0  0  0  0
  7 11  1  0  0  0  0
  1  2  2  0  0  0  0
  2 12  1  0  0  0  0
  5  1  1  0  0  0  0
 12 13  1  0  0  0  0
  2  3  1  0  0  0  0
 11 14  2  0  0  0  0
 11 15  1  0  0  0  0
M  END
$$$$
