
  corina  03171011443D 1   1.00000     0.00000 
CORINA 3.46 0026  05.08.2008
 28 30  0  0  0  0  0  0  0  0999 V2000
    0.2011    1.4488    0.5518 N   0  0  3  0  0  0  0  0  0  0  0  0
    0.1766    0.1002    0.5316 C   0  0  0  0  0  0  0  0  0  0  0  0
    1.4146   -0.6138    0.1644 C   0  0  0  0  0  0  0  0  0  0  0  0
    2.5953    0.2114   -0.1556 C   0  0  0  0  0  0  0  0  0  0  0  0
    2.4706    1.5532   -0.0930 N   0  0  3  0  0  0  0  0  0  0  0  0
    1.3123    2.1343    0.2489 C   0  0  0  0  0  0  0  0  0  0  0  0
    3.6523   -0.3042   -0.4668 O   0  0  0  0  0  0  0  0  0  0  0  0
   -0.8383   -0.5106    0.8090 O   0  0  0  0  0  0  0  0  0  0  0  0
    1.2486    3.8443    0.3015 S   0  0  0  0  0  0  0  0  0  0  0  0
   -1.0169    2.1813    0.9072 C   0  0  0  0  0  0  0  0  0  0  0  0
   -1.0523    2.4085    2.4198 C   0  0  0  0  0  0  0  0  0  0  0  0
    3.6284    2.3947   -0.4056 C   0  0  0  0  0  0  0  0  0  0  0  0
    3.6366    2.7156   -1.9016 C   0  0  0  0  0  0  0  0  0  0  0  0
    1.4662   -1.9950    0.1223 C   0  0  0  0  0  0  0  0  0  0  0  0
    4.3478   -3.9009   -0.9564 N   0  0  3  0  0  0  0  0  0  0  0  0
    3.0868   -3.4826   -1.1579 C   0  0  0  0  0  0  0  0  0  0  0  0
    2.7444   -2.6725   -0.0834 C   0  0  0  0  0  0  0  0  0  0  0  0
    3.8715   -2.6273    0.7761 C   0  0  0  0  0  0  0  0  0  0  0  0
    4.8117   -3.3584    0.2467 N   0  0  0  0  0  0  0  0  0  0  0  0
    3.9659   -1.8666    2.0736 C   0  0  0  0  0  0  0  0  0  0  0  0
    5.0748   -4.7447   -1.8066 C   0  0  0  0  0  0  0  0  0  0  0  0
    5.0087   -4.5705   -3.1826 C   0  0  0  0  0  0  0  0  0  0  0  0
    5.7268   -5.4036   -4.0180 C   0  0  0  0  0  0  0  0  0  0  0  0
    6.5106   -6.4107   -3.4854 C   0  0  0  0  0  0  0  0  0  0  0  0
    6.5785   -6.5867   -2.1155 C   0  0  0  0  0  0  0  0  0  0  0  0
    5.8673   -5.7533   -1.2747 C   0  0  0  0  0  0  0  0  0  0  0  0
    2.2075   -3.8284   -2.3320 C   0  0  0  0  0  0  0  0  0  0  0  0
    0.5617   -2.5730    0.2416 H   0  0  0  0  0  0  0  0  0  0  0  0
  3 14  2  0  0  0  0
 18 19  2  0  0  0  0
  4  7  2  0  0  0  0
  1  2  1  0  0  0  0
 16 17  2  0  0  0  0
  2  8  2  0  0  0  0
  1  6  1  0  0  0  0
  6  9  2  0  0  0  0
 15 16  1  0  0  0  0
 17 18  1  0  0  0  0
 19 15  1  0  0  0  0
 18 20  1  0  0  0  0
  2  3  1  0  0  0  0
  1 10  1  0  0  0  0
 15 21  1  0  0  0  0
  3  4  1  0  0  0  0
 21 22  2  0  0  0  0
 10 11  1  0  0  0  0
 22 23  1  0  0  0  0
  4  5  1  0  0  0  0
 23 24  2  0  0  0  0
  5 12  1  0  0  0  0
 24 25  1  0  0  0  0
  5  6  1  0  0  0  0
 25 26  2  0  0  0  0
 26 21  1  0  0  0  0
 12 13  1  0  0  0  0
 16 27  1  0  0  0  0
 17 14  1  0  0  0  0
 14 28  1  0  0  0  0
M  END
$$$$
