
  corina  09161009273D 1   1.00000     0.00000 
CORINA 3.46 0026  05.08.2008
 18 19  0  0  0  0  0  0  0  0999 V2000
    0.6844   -0.2044   -1.1452 C   0  0  0  0  0  0  0  0  0  0  0  0
    0.2197   -0.1465    0.1610 C   0  0  0  0  0  0  0  0  0  0  0  0
    0.8242    0.6937    1.0839 C   0  0  0  0  0  0  0  0  0  0  0  0
    1.8918    1.4788    0.7108 C   0  0  0  0  0  0  0  0  0  0  0  0
    2.3690    1.4272   -0.6080 C   0  0  0  0  0  0  0  0  0  0  0  0
    1.7523    0.5743   -1.5357 C   0  0  0  0  0  0  0  0  0  0  0  0
   -0.0770   -1.2659   -2.2886 Cl  0  0  0  0  0  0  0  0  0  0  0  0
   -1.1265   -1.1311    0.6425 Cl  0  0  0  0  0  0  0  0  0  0  0  0
    3.5025    2.2582   -1.0132 C   0  0  0  0  0  0  0  0  0  0  0  0
    3.5634    3.5872   -0.6205 C   0  0  0  0  0  0  0  0  0  0  0  0
    4.8170    4.3566   -0.6992 C   0  0  0  0  0  0  0  0  0  0  0  0
    4.7980    5.6198   -0.3072 N   0  0  0  0  0  0  0  0  0  0  0  0
    3.6828    6.1939    0.1487 C   0  0  0  0  0  0  0  0  0  0  0  0
    2.5124    5.5604    0.2486 N   0  0  0  0  0  0  0  0  0  0  0  0
    2.3761    4.2950   -0.1117 C   0  0  0  0  0  0  0  0  0  0  0  0
    3.7364    7.3645    0.4941 O   0  0  0  0  0  0  0  0  0  0  0  0
    5.9727    3.7788   -1.1659 N   0  0  0  0  0  0  0  0  0  0  0  0
    1.1649    3.6558   -0.0032 N   0  0  0  0  0  0  0  0  0  0  0  0
  1  2  2  0  0  0  0
  2  3  1  0  0  0  0
  3  4  2  0  0  0  0
  4  5  1  0  0  0  0
  5  6  2  0  0  0  0
  1  6  1  0  0  0  0
  1  7  1  0  0  0  0
  2  8  1  0  0  0  0
  5  9  1  0  0  0  0
  9 10  2  0  0  0  0
 10 11  1  0  0  0  0
 11 12  2  0  0  0  0
 12 13  1  0  0  0  0
 13 14  1  0  0  0  0
 14 15  2  0  0  0  0
 10 15  1  0  0  0  0
 13 16  2  0  0  0  0
 11 17  1  0  0  0  0
 15 18  1  0  0  0  0
M  END
$$$$
