m373.cdx
  corina  12080917083D 1   1.00000     0.00000 
CORINA 3.46 0026  05.08.2008
 17 18  0  0  0  0  0  0  0  0999 V2000
   -0.0167    1.3794    0.0096 C   0  0  0  0  0  0  0  0  0  0  0  0
    0.0021   -0.0041    0.0020 C   0  0  0  0  0  0  0  0  0  0  0  0
    1.1531   -0.6559   -0.0120 N   0  0  0  0  0  0  0  0  0  0  0  0
    2.2912    0.0103   -0.0193 C   0  0  0  0  0  0  0  0  0  0  0  0
    2.2785    1.4094   -0.0121 C   0  0  0  0  0  0  0  0  0  0  0  0
    1.1158    2.0587    0.0025 N   0  0  0  0  0  0  0  0  0  0  0  0
    3.4536    2.1064   -0.0191 N   0  0  0  0  0  0  0  0  0  0  0  0
    3.4384    3.4112   -0.0124 C   0  0  0  0  0  0  0  0  0  0  0  0
    4.7024    4.1609   -0.0199 C   0  0  0  0  0  0  0  0  0  0  0  0
    5.9269    3.4782   -0.0343 C   0  0  0  0  0  0  0  0  0  0  0  0
    7.1163    4.1990   -0.0418 C   0  0  0  0  0  0  0  0  0  0  0  0
    7.0873    5.5837   -0.0351 C   0  0  0  0  0  0  0  0  0  0  0  0
    5.8776    6.2591   -0.0208 C   0  0  0  0  0  0  0  0  0  0  0  0
    4.6905    5.5610   -0.0186 C   0  0  0  0  0  0  0  0  0  0  0  0
    5.9515    2.1206   -0.0405 O   0  0  0  0  0  0  0  0  0  0  0  0
    8.3082    3.5440   -0.0554 O   0  0  0  0  0  0  0  0  0  0  0  0
    9.4899    4.3475   -0.0624 C   0  0  0  0  0  0  0  0  0  0  0  0
  1  2  2  0  0  0
  2  3  1  0  0  0
  3  4  2  0  0  0
  4  5  1  0  0  0
  5  6  2  0  0  0
  6  1  1  0  0  0
  5  7  1  0  0  0
  7  8  2  0  0  0
  8  9  1  0  0  0
  9 10  2  0  0  0
 10 11  1  0  0  0
 11 12  2  0  0  0
 12 13  1  0  0  0
 13 14  2  0  0  0
 14  9  1  0  0  0
 10 15  1  0  0  0
 11 16  1  0  0  0
 16 17  1  0  0  0
M  END
$$$$
