m556.mol
  corina  12080917093D 1   1.00000     0.00000 
CORINA 3.46 0026  05.08.2008
 37 41  0  0  0  0  0  0  0  0999 V2000
   -0.0159    1.3245    0.0093 C   0  0  0  0  0  0  0  0  0  0  0  0
    0.0021   -0.0041    0.0020 N   0  0  0  0  0  0  0  0  0  0  0  0
    1.1632   -0.6498   -0.0125 C   0  0  0  0  0  0  0  0  0  0  0  0
    2.3040    0.0354   -0.0197 N   0  0  0  0  0  0  0  0  0  0  0  0
    2.2827    1.3582   -0.0124 C   0  0  0  0  0  0  0  0  0  0  0  0
    1.1282    2.0041    0.0020 N   0  0  0  0  0  0  0  0  0  0  0  0
   -1.2199    1.9989    0.0187 N   0  0  0  0  0  0  0  0  0  0  0  0
    3.7731    2.2485   -0.0219 Cl  0  0  0  0  0  0  0  0  0  0  0  0
    1.1862   -2.0296   -0.0197 N   0  0  0  0  0  0  0  0  0  0  0  0
    2.4669   -2.7408   -0.0358 C   0  0  0  0  0  0  0  0  0  0  0  0
   -0.0701   -2.7832   -0.0113 C   0  0  0  0  0  0  0  0  0  0  0  0
   -1.2388    3.4638    0.0267 C   0  0  0  0  0  0  0  0  0  0  0  0
   -2.4790    1.2500    0.0206 C   0  0  0  0  0  0  0  0  0  0  0  0
   -2.9040    0.9855    1.4420 C   0  0  0  0  0  0  0  0  0  0  0  0
   -1.2520    3.9738   -1.3913 C   0  0  0  0  0  0  0  0  0  0  0  0
    2.9199   -2.9918    1.3795 C   0  0  0  0  0  0  0  0  0  0  0  0
   -0.5147   -3.0344   -1.4291 C   0  0  0  0  0  0  0  0  0  0  0  0
   -2.4229   -0.0624    2.0818 N   0  0  0  0  0  0  0  0  0  0  0  0
   -2.7665   -0.3332    3.3258 C   0  0  0  0  0  0  0  0  0  0  0  0
   -3.6516    0.4801    4.0078 C   0  0  0  0  0  0  0  0  0  0  0  0
   -4.1784    1.5915    3.3677 C   0  0  0  0  0  0  0  0  0  0  0  0
   -3.7891    1.8472    2.0618 C   0  0  0  0  0  0  0  0  0  0  0  0
   -2.4559    4.2879   -1.9930 C   0  0  0  0  0  0  0  0  0  0  0  0
   -2.4571    4.7564   -3.2979 C   0  0  0  0  0  0  0  0  0  0  0  0
   -1.2418    4.8918   -3.9515 C   0  0  0  0  0  0  0  0  0  0  0  0
   -0.0780    4.5578   -3.2853 C   0  0  0  0  0  0  0  0  0  0  0  0
   -0.1144    4.1202   -2.0418 N   0  0  0  0  0  0  0  0  0  0  0  0
    2.6301   -4.1997    1.9853 C   0  0  0  0  0  0  0  0  0  0  0  0
    3.0513   -4.4206    3.2876 C   0  0  0  0  0  0  0  0  0  0  0  0
    3.7514   -3.4137    3.9345 C   0  0  0  0  0  0  0  0  0  0  0  0
    4.0043   -2.2317    3.2644 C   0  0  0  0  0  0  0  0  0  0  0  0
    3.5928   -2.0584    2.0236 N   0  0  0  0  0  0  0  0  0  0  0  0
   -1.2139   -2.1151   -2.0655 N   0  0  0  0  0  0  0  0  0  0  0  0
   -1.6241   -2.2913   -3.3063 C   0  0  0  0  0  0  0  0  0  0  0  0
   -1.3325   -3.4574   -3.9884 C   0  0  0  0  0  0  0  0  0  0  0  0
   -0.5992   -4.4471   -3.3519 C   0  0  0  0  0  0  0  0  0  0  0  0
   -0.1801   -4.2233   -2.0493 C   0  0  0  0  0  0  0  0  0  0  0  0
  1  2  2  0  0  0  0
  2  3  1  0  0  0  0
  3  4  2  0  0  0  0
  4  5  1  0  0  0  0
  5  6  2  0  0  0  0
  1  6  1  0  0  0  0
  1  7  1  0  0  0  0
  5  8  1  0  0  0  0
  3  9  1  0  0  0  0
  9 10  1  0  0  0  0
  9 11  1  0  0  0  0
  7 12  1  0  0  0  0
  7 13  1  0  0  0  0
 13 14  1  0  0  0  0
 12 15  1  0  0  0  0
 10 16  1  0  0  0  0
 11 17  1  0  0  0  0
 14 18  2  0  0  0  0
 18 19  1  0  0  0  0
 19 20  2  0  0  0  0
 20 21  1  0  0  0  0
 21 22  2  0  0  0  0
 14 22  1  0  0  0  0
 15 23  2  0  0  0  0
 23 24  1  0  0  0  0
 24 25  2  0  0  0  0
 25 26  1  0  0  0  0
 26 27  2  0  0  0  0
 15 27  1  0  0  0  0
 16 28  2  0  0  0  0
 28 29  1  0  0  0  0
 29 30  2  0  0  0  0
 30 31  1  0  0  0  0
 31 32  2  0  0  0  0
 16 32  1  0  0  0  0
 17 33  2  0  0  0  0
 33 34  1  0  0  0  0
 34 35  2  0  0  0  0
 35 36  1  0  0  0  0
 36 37  2  0  0  0  0
 17 37  1  0  0  0  0
M  END
$$$$
