MOLFILE.cdx
  corina  02131210083D 1   1.00000     0.00000 
CORINA 3.49 0024  01.06.2011
 30 34  0  0  0  0  0  0  0  0999 V2000
   -0.0158    1.3145    0.0093 N   0  0  0  0  0  0  0  0  0  0  0  0
    0.0021   -0.0041    0.0020 C   0  0  0  0  0  0  0  0  0  0  0  0
    1.3142   -0.4012   -0.0126 N   0  0  0  0  0  0  0  0  0  0  0  0
    2.0729    0.7760   -0.0136 N   0  0  0  0  0  0  0  0  0  0  0  0
    1.2293    1.7793   -0.0001 C   0  0  0  0  0  0  0  0  0  0  0  0
   -2.4766   -1.0662    0.0204 C   0  0  0  0  0  0  0  0  0  0  0  0
   -2.8523   -2.3263    0.0175 N   0  0  0  0  0  0  0  0  0  0  0  0
   -1.7246   -3.1538    0.0020 N   0  0  0  0  0  0  0  0  0  0  0  0
   -1.0184   -1.0467    0.0062 C   0  0  0  0  0  0  0  0  0  0  0  0
   -0.5970   -2.3838   -0.0050 C   0  0  0  0  0  0  0  0  0  0  0  0
    0.7160   -2.6578   -0.0198 N   0  0  0  0  0  0  0  0  0  0  0  0
    1.6223   -1.7246   -0.0223 C   0  0  0  0  0  0  0  0  0  0  0  0
    1.6127    3.2367    0.0031 C   0  0  0  0  0  0  0  0  0  0  0  0
    1.7266    3.7292   -1.4166 C   0  0  0  0  0  0  0  0  0  0  0  0
    1.5179    2.9743   -2.3366 O   0  0  0  0  0  0  0  0  0  0  0  0
    2.0600    5.0067   -1.6591 O   0  0  0  0  0  0  0  0  0  0  0  0
    2.5390    6.8894   -3.1274 C   0  0  0  0  0  0  0  0  0  0  0  0
    2.1511    5.4114   -3.0506 C   0  0  0  0  0  0  0  0  0  0  0  0
   -3.3705    0.1164    0.0347 C   0  0  0  0  0  0  0  0  0  0  0  0
   -4.5869    0.0823   -0.6454 C   0  0  0  0  0  0  0  0  0  0  0  0
   -5.0395    2.3252    0.0610 C   0  0  0  0  0  0  0  0  0  0  0  0
   -3.8365    2.3626    0.7428 C   0  0  0  0  0  0  0  0  0  0  0  0
   -5.4148    1.1862   -0.6286 C   0  0  0  0  0  0  0  0  0  0  0  0
   -3.0004    1.2648    0.7330 C   0  0  0  0  0  0  0  0  0  0  0  0
   -1.7483   -4.5535   -0.0044 C   0  0  0  0  0  0  0  0  0  0  0  0
   -2.7378   -5.2360    0.6915 C   0  0  0  0  0  0  0  0  0  0  0  0
   -1.7956   -7.3200   -0.0175 C   0  0  0  0  0  0  0  0  0  0  0  0
   -0.8124   -6.6435   -0.7161 C   0  0  0  0  0  0  0  0  0  0  0  0
   -2.7587   -6.6168    0.6828 C   0  0  0  0  0  0  0  0  0  0  0  0
   -0.7859   -5.2627   -0.7114 C   0  0  0  0  0  0  0  0  0  0  0  0
  1  2  2  0      
  2  3  1  0      
  3  4  1  0      
  4  5  2  0      
  1  5  1  0      
  6  7  2  0      
  7  8  1  0      
  8 10  1  0      
  6  9  1  0      
  9 10  2  0      
  9  2  1  0      
 10 11  1  0      
 11 12  2  0      
 12  3  1  0      
  5 13  1  0      
 13 14  1  0      
 14 15  2  0      
 14 16  1  0      
 16 18  1  0      
 17 18  1  0      
  6 19  1  0      
 19 20  2  0      
 21 22  1  0      
 19 24  1  0      
 20 23  1  0      
 23 21  2  0      
 22 24  2  0      
  8 25  1  0      
 25 26  2  0      
 27 28  1  0      
 25 30  1  0      
 26 29  1  0      
 29 27  2  0      
 28 30  2  0      
M  STY  1   1 SUP
M  SLB  1   1   1
M  SAL   1  6  13  14  15  16  17  18
M  SBL   1  1  15
M  SMT   1 CH2COOEt
M  SBV   1  15   -0.6389   -0.6469
M  STY  1   2 SUP
M  SLB  1   2   2
M  SAL   2  6  19  20  21  22  23  24
M  SBL   2  1  21
M  SMT   2 ^Ph
M  SBV   2  21    0.6410   -0.6410
M  STY  1   3 SUP
M  SLB  1   3   3
M  SAL   3  6  25  26  27  28  29  30
M  SBL   3  1  28
M  SMT   3 Ph
M  SBV   3  28    0.0003    0.8240
M  END
$$$$
