
  corina  02261504353D 1   1.00000     0.00000 
CORINA 3.49 0023  12.04.2013
 77 86  0  0  0  0  0  0  0  0  1 V2000
    0.2523    0.0021   -6.4335 O   0  0  0  0  0  0  0  0  0  0  0  0
    0.5928   -6.9091   -7.9134 O   0  0  0  0  0  0  0  0  0  0  0  0
   -0.2418    2.4537    0.3951 C   0  0  0  0  0  0  0  0  0  0  0  0
    0.4657  -11.9708   -2.6936 C   0  0  0  0  0  0  0  0  0  0  0  0
    0.0363    5.5399   -3.5289 C   0  0  0  0  0  0  0  0  0  0  0  0
    0.9462  -13.1448   -7.5299 C   0  0  0  0  0  0  0  0  0  0  0  0
   -0.1499    2.6842   -1.0913 C   0  0  0  0  0  0  0  0  0  0  0  0
   -0.1012    3.9507   -1.6044 C   0  0  0  0  0  0  0  0  0  0  0  0
   -0.0160    4.1370   -2.9810 C   0  0  0  0  0  0  0  0  0  0  0  0
    0.0195    3.1247   -3.8145 N   0  0  0  0  0  0  0  0  0  0  0  0
    0.7068  -10.8361   -6.8038 N   0  0  0  0  0  0  0  0  0  0  0  0
    0.7786  -12.0994   -6.4576 C   0  0  0  0  0  0  0  0  0  0  0  0
    0.7037  -12.5005   -5.1271 C   0  0  0  0  0  0  0  0  0  0  0  0
    0.5506  -11.5643   -4.1422 C   0  0  0  0  0  0  0  0  0  0  0  0
    0.6898   -4.2982   -8.8932 C   0  0  0  0  0  0  0  0  0  0  0  0
    0.3434   -3.5770   -6.6149 C   0  0  0  0  0  0  0  0  0  0  0  0
    0.5740   -1.9589   -8.3924 C   0  0  0  0  0  0  0  0  0  0  0  0
    0.7266   -2.9816   -9.3074 C   0  0  0  0  0  0  0  0  0  0  0  0
    0.2525   -7.9022   -3.9971 C   0  0  0  0  0  0  0  0  0  0  0  0
    0.3182   -9.1920   -3.5605 C   0  0  0  0  0  0  0  0  0  0  0  0
    0.4748  -10.2126   -4.5187 C   0  0  0  0  0  0  0  0  0  0  0  0
    0.5582   -9.8706   -5.8908 C   0  0  0  0  0  0  0  0  0  0  0  0
    0.4869   -8.5867   -6.2580 N   0  0  0  0  0  0  0  0  0  0  0  0
    0.0914   -5.5979   -5.1638 H   0  0  0  0  0  0  0  0  0  0  0  0
    0.3410   -7.6265   -5.3682 C   0  0  0  0  0  0  0  0  0  0  0  0
    0.2726   -6.3076   -5.7998 N   0  0  0  0  0  0  0  0  0  0  0  0
    0.4581   -6.0142   -7.1021 C   0  0  0  0  0  0  0  0  0  0  0  0
    0.4977   -4.6041   -7.5436 C   0  0  0  0  0  0  0  0  0  0  0  0
    0.0130    0.8391   -4.2402 N   0  0  0  0  0  0  0  0  0  0  0  0
   -0.0245    1.8613   -3.3789 C   0  0  0  0  0  0  0  0  0  0  0  0
   -0.1061    1.6034   -1.9884 C   0  0  0  0  0  0  0  0  0  0  0  0
   -0.1462    0.2707   -1.5341 C   0  0  0  0  0  0  0  0  0  0  0  0
   -0.0994   -0.7281   -2.4608 C   0  0  0  0  0  0  0  0  0  0  0  0
   -0.0137   -0.4100   -3.8228 C   0  0  0  0  0  0  0  0  0  0  0  0
   -0.0674   -2.3587   -4.4700 H   0  0  0  0  0  0  0  0  0  0  0  0
    0.0333   -1.4376   -4.7569 N   0  0  0  0  0  0  0  0  0  0  0  0
    0.2188   -1.1545   -6.0614 C   0  0  0  0  0  0  0  0  0  0  0  0
    0.3816   -2.2506   -7.0397 C   0  0  0  0  0  0  0  0  0  0  0  0
    4.7400   -5.7883  -12.1923 O   0  0  0  0  0  0  0  0  0  0  0  0
    4.3989    1.1230  -10.7129 O   0  0  0  0  0  0  0  0  0  0  0  0
   10.2965    5.3730  -10.7241 C   0  0  0  0  0  0  0  0  0  0  0  0
   10.8770   -8.9575  -14.4590 C   0  0  0  0  0  0  0  0  0  0  0  0
    5.9286    6.9033   -8.8322 C   0  0  0  0  0  0  0  0  0  0  0  0
    6.4548  -11.2806  -14.6769 C   0  0  0  0  0  0  0  0  0  0  0  0
    6.2107    4.6530   -9.7103 N   0  0  0  0  0  0  0  0  0  0  0  0
    6.7596    5.8199   -9.4699 C   0  0  0  0  0  0  0  0  0  0  0  0
    8.0882    6.0849   -9.7882 C   0  0  0  0  0  0  0  0  0  0  0  0
    8.8554    5.1129  -10.3681 C   0  0  0  0  0  0  0  0  0  0  0  0
    9.3833   -8.9607  -14.2595 C   0  0  0  0  0  0  0  0  0  0  0  0
    8.6382  -10.0706  -14.5473 C   0  0  0  0  0  0  0  0  0  0  0  0
    7.2602  -10.0484  -14.3540 C   0  0  0  0  0  0  0  0  0  0  0  0
    6.6432   -8.9840  -13.8989 N   0  0  0  0  0  0  0  0  0  0  0  0
    3.0247   -1.2966  -10.9207 C   0  0  0  0  0  0  0  0  0  0  0  0
    5.1347   -2.2819  -11.5595 C   0  0  0  0  0  0  0  0  0  0  0  0
    3.1400   -3.6359  -11.4221 C   0  0  0  0  0  0  0  0  0  0  0  0
    0.9348   -2.6593  -10.7648 C   0  0  0  0  0  0  0  0  0  0  0  0
    2.4097   -2.5267  -11.0442 C   0  0  0  0  0  0  0  0  0  0  0  0
    8.3512    1.6302  -11.4346 C   0  0  0  0  0  0  0  0  0  0  0  0
    8.9899    2.8147  -11.2169 C   0  0  0  0  0  0  0  0  0  0  0  0
    8.2625    3.8646  -10.6230 C   0  0  0  0  0  0  0  0  0  0  0  0
    6.9050    3.6591  -10.2743 C   0  0  0  0  0  0  0  0  0  0  0  0
    6.3328    2.4743  -10.5132 N   0  0  0  0  0  0  0  0  0  0  0  0
    7.0062    1.4874  -11.0678 C   0  0  0  0  0  0  0  0  0  0  0  0
    6.8699   -0.4826  -11.6333 H   0  0  0  0  0  0  0  0  0  0  0  0
    6.3671    0.2749  -11.2952 N   0  0  0  0  0  0  0  0  0  0  0  0
    5.0483    0.1511  -11.0460 C   0  0  0  0  0  0  0  0  0  0  0  0
    4.3918   -1.1667  -11.1778 C   0  0  0  0  0  0  0  0  0  0  0  0
    6.6700   -6.7885  -13.1343 N   0  0  0  0  0  0  0  0  0  0  0  0
    7.3121   -7.8660  -13.5980 C   0  0  0  0  0  0  0  0  0  0  0  0
    8.7179   -7.8251  -13.7672 C   0  0  0  0  0  0  0  0  0  0  0  0
    9.4188   -6.6471  -13.4432 C   0  0  0  0  0  0  0  0  0  0  0  0
    8.7088   -5.5839  -12.9698 C   0  0  0  0  0  0  0  0  0  0  0  0
    7.0606   -3.7523  -12.1785 H   0  0  0  0  0  0  0  0  0  0  0  0
    7.3194   -5.6866  -12.8193 C   0  0  0  0  0  0  0  0  0  0  0  0
    6.6077   -4.5956  -12.3359 N   0  0  0  0  0  0  0  0  0  0  0  0
    5.2882   -4.7088  -12.0857 C   0  0  0  0  0  0  0  0  0  0  0  0
    4.5079   -3.5202  -11.6818 C   0  0  0  0  0  0  0  0  0  0  0  0
 56 18  1  0
 37  1  2  0
 27  2  2  0
  7  3  1  0
 14  4  1  0
  9  5  1  0
 12  6  1  0
 30 10  1  0
 10  9  2  0
  9  8  1  0
  8  7  2  0
  7 31  1  0
 21 14  1  0
 14 13  2  0
 13 12  1  0
 12 11  2  0
 11 22  1  0
 18 17  1  0
 17 38  2  0
 38 16  1  0
 16 28  2  0
 28 15  1  0
 15 18  2  0
 25 23  1  0
 23 22  2  0
 22 21  1  0
 21 20  2  0
 20 19  1  0
 19 25  2  0
 26 24  1  0
 26 25  1  0
 27 26  1  0
 28 27  1  0
 34 33  1  0
 33 32  2  0
 32 31  1  0
 31 30  2  0
 30 29  1  0
 29 34  2  0
 36 34  1  0
 36 35  1  0
 37 36  1  0
 38 37  1  0
 76 39  2  0
 66 40  2  0
 48 41  1  0
 49 42  1  0
 46 43  1  0
 51 44  1  0
 60 48  1  0
 48 47  2  0
 47 46  1  0
 46 45  2  0
 45 61  1  0
 69 52  1  0
 52 51  2  0
 51 50  1  0
 50 49  2  0
 49 70  1  0
 57 55  1  0
 55 77  2  0
 77 54  1  0
 54 67  2  0
 67 53  1  0
 53 57  2  0
 57 56  1  0
 63 62  1  0
 62 61  2  0
 61 60  1  0
 60 59  2  0
 59 58  1  0
 58 63  2  0
 65 63  1  0
 65 64  1  0
 66 65  1  0
 67 66  1  0
 74 72  1  0
 72 71  2  0
 71 70  1  0
 70 69  2  0
 69 68  1  0
 68 74  2  0
 75 73  1  0
 75 74  1  0
 76 75  1  0
 77 76  1  0
M  END
$$$$
