405-2.mol
  corina  12080917083D 1   1.00000     0.00000 
CORINA 3.46 0026  05.08.2008
 14 15  0  0  0  0  0  0  0  0999 V2000
   -0.0158    1.3105    0.0092 C   0  0  0  0  0  0  0  0  0  0  0  0
    0.0021   -0.0041    0.0020 C   0  0  0  0  0  0  0  0  0  0  0  0
    1.4518   -0.4512   -0.0143 C   0  0  0  0  0  0  0  0  0  0  0  0
    1.8855   -0.6086   -1.4838 C   0  0  0  0  0  0  0  0  0  0  0  0
    1.5445    0.6865   -2.1973 C   0  0  0  0  0  0  0  0  0  0  0  0
    1.8504    1.9824   -1.4695 C   0  0  0  0  0  0  0  0  0  0  0  0
    1.4213    1.7970   -0.0019 C   0  0  0  0  0  0  0  0  0  0  0  0
    1.0503    0.6859   -3.2991 O   0  0  0  0  0  0  0  0  0  0  0  0
    2.1776    0.6800    0.5259 O   0  0  0  0  0  0  0  0  0  0  0  0
    1.6704   -1.7335    0.7913 C   0  0  0  0  0  0  0  0  0  0  0  0
    1.0626    3.1321   -2.1007 C   0  0  0  0  0  0  0  0  0  0  0  0
    3.3501    2.2773   -1.5400 C   0  0  0  0  0  0  0  0  0  0  0  0
    3.6615   -0.9071   -1.5704 Cl  0  0  0  0  0  0  0  0  0  0  0  0
    1.3466   -1.4376   -1.9426 H   0  0  0  0  0  0  0  0  0  0  0  0
  1  2  2  0  0  0  0
  2  3  1  0  0  0  0
  3  4  1  0  0  0  0
  4  5  1  0  0  0  0
  5  6  1  0  0  0  0
  6  7  1  0  0  0  0
  1  7  1  0  0  0  0
  5  8  2  0  0  0  0
  3  9  1  0  0  0  0
  7  9  1  0  0  0  0
  3 10  1  0  0  0  0
  6 11  1  0  0  0  0
  6 12  1  0  0  0  0
  4 13  1  0  0  0  0
  4 14  1  0  0  0  0
M  END

$$$$
