m388.cdx
  corina  12080917083D 1   1.00000     0.00000 
CORINA 3.46 0026  05.08.2008
 15 15  0  0  0  0  0  0  0  0999 V2000
   -0.0184    1.5068    0.0103 C   0  0  0  0  0  0  0  0  0  0  0  0
    0.0021   -0.0041    0.0020 C   0  0  0  0  0  0  0  0  0  0  0  0
    1.4457   -0.3798    0.4094 C   0  0  0  0  0  0  0  0  0  0  0  0
    2.2229    0.8880   -0.0144 C   0  0  0  0  0  0  0  0  0  0  0  0
    1.1928    1.9933    0.0014 C   0  0  0  0  0  0  0  0  0  0  0  0
    1.5206    3.4642    0.0057 C   0  0  0  0  0  0  0  0  0  0  0  0
    1.5486   -0.6082    1.9188 C   0  0  0  0  0  0  0  0  0  0  0  0
    3.3410    1.1872    0.9863 C   0  0  0  0  0  0  0  0  0  0  0  0
    2.7978    0.7152   -1.4217 C   0  0  0  0  0  0  0  0  0  0  0  0
    0.7497   -1.8286    2.2978 C   0  0  0  0  0  0  0  0  0  0  0  0
    1.3320   -2.8262    2.9661 C   0  0  0  0  0  0  0  0  0  0  0  0
    0.5566   -4.0106    3.3340 C   0  0  0  0  0  0  0  0  0  0  0  0
    1.2141   -5.1372    4.0887 C   0  0  0  0  0  0  0  0  0  0  0  0
   -0.6160   -4.0861    3.0315 O   0  0  0  0  0  0  0  0  0  0  0  0
    0.1902   -6.2446    4.3459 C   0  0  0  0  0  0  0  0  0  0  0  0
  1  2  1  0  0  0
  2  3  1  0  0  0
  3  4  1  0  0  0
  4  5  1  0  0  0
  5  1  2  0  0  0
  5  6  1  0  0  0
  3  7  1  0  0  0
  4  8  1  0  0  0
  4  9  1  0  0  0
  7 10  1  0  0  0
 10 11  2  0  0  0
 11 12  1  0  0  0
 12 13  1  0  0  0
 12 14  2  0  0  0
 13 15  1  0  0  0
M  END
$$$$
