Untitled J. Mol. Mod. (2 Column)-1
  corina  08081208283D 1   1.00000     0.00000 
CORINA 3.49 0024  01.06.2011
 25 26  0  0  0  0  0  0  0  0999 V2000
   -0.1949    1.2313   -0.0122 C   0  0  0  0  0  0  0  0  0  0  0  0
   -0.3923   -0.2794   -0.0726 C   0  0  0  0  0  0  0  0  0  0  0  0
    1.2907    1.5781    0.0061 C   0  0  0  0  0  0  0  0  0  0  0  0
    0.2733   -0.9102    1.0755 N   0  0  0  0  0  0  0  0  0  0  0  0
    1.9612    0.8635    1.1839 C   0  0  0  0  0  0  0  0  0  0  0  0
    1.7172   -0.6427    1.0637 C   0  0  0  0  0  0  0  0  0  0  0  0
   -0.8797    1.9028   -1.1782 C   0  0  0  0  0  0  0  0  0  0  0  0
   -1.7770    2.6971   -0.6772 N   0  0  0  0  0  0  0  0  0  0  0  0
   -1.8059    2.6643    0.7144 N   0  0  0  0  0  0  0  0  0  0  0  0
   -0.8852    1.8063    1.2032 C   0  0  0  0  0  0  0  0  0  0  0  0
   -0.5882    1.6977   -2.6012 C   0  0  0  0  0  0  0  0  0  0  0  0
    0.2846    0.9194   -2.9374 O   0  0  0  0  0  0  0  0  0  0  0  0
   -1.2870    2.3716   -3.5361 N   0  0  0  0  0  0  0  0  0  0  0  0
   -0.9366    2.2607   -4.8869 C   0  0  0  0  0  0  0  0  0  0  0  0
    0.3940    2.0939   -5.2476 C   0  0  0  0  0  0  0  0  0  0  0  0
   -1.9201    2.3119   -5.8656 C   0  0  0  0  0  0  0  0  0  0  0  0
    0.7410    1.9786   -6.5802 C   0  0  0  0  0  0  0  0  0  0  0  0
   -1.5724    2.1963   -7.2012 C   0  0  0  0  0  0  0  0  0  0  0  0
   -0.2381    2.0292   -7.5594 C   0  0  0  0  0  0  0  0  0  0  0  0
   -0.6603    1.5518    2.3672 O   0  0  0  0  0  0  0  0  0  0  0  0
    0.1052    1.9160   -8.8711 O   0  0  0  0  0  0  0  0  0  0  0  0
   -2.5339    2.2457   -8.1616 O   0  0  0  0  0  0  0  0  0  0  0  0
   -3.8824    2.4186   -7.7213 C   0  0  0  0  0  0  0  0  0  0  0  0
    1.4931    1.7472   -9.1663 C   0  0  0  0  0  0  0  0  0  0  0  0
    6.9612    7.6971    7.3672 Cl  0  0  0  0  0  0  0  0  0  0  0  0
  2  1  1  0      
  3  1  1  0      
  4  2  1  0      
  5  3  1  0      
  6  4  1  0      
  6  5  1  0      
  8  7  2  0      
  1  7  1  0      
  9  8  1  0      
 10  1  1  0      
 10  9  1  0      
  7 11  1  0      
 11 12  2  0      
 11 13  1  0      
 15 14  1  0      
 16 14  2  0      
 17 15  2  0      
 18 16  1  0      
 19 17  1  0      
 19 18  2  0      
 13 14  1  0      
 10 20  2  0      
 19 21  1  0      
 18 22  1  0      
 22 23  1  0      
 21 24  1  0      
M  END
$$$$
