
  corina  01211411093D 1   1.00000     0.00000     0
CORINA 3.48 0000  08.02.2010
 50 51  0  0  0  0            999 V2000
   -2.3519    1.9649    0.0039 C   0  0  0  0  0  0  0  0  0  0  0  0
   -1.0314    1.5703    0.0046 C   0  0  0  0  0  0  0  0  0  0  0  0
   -0.7100    0.2133    0.0037 C   0  0  0  0  0  0  0  0  0  0  0  0
    0.7100   -0.2133    0.0039 C   0  0  0  0  0  0  0  0  0  0  0  0
    1.0314   -1.5703    0.0030 C   0  0  0  0  0  0  0  0  0  0  0  0
    2.3519   -1.9649    0.0037 C   0  0  0  0  0  0  0  0  0  0  0  0
    3.3638   -1.0106    0.0058 C   0  0  0  0  0  0  0  0  0  0  0  0
    4.6995   -1.4119    0.0074 N   0  0  0  0  0  0  0  0  0  0  0  0
    5.7195   -0.4514    0.0037 N   0  0  0  0  0  0  0  0  0  0  0  0
    6.9690   -0.8268   -0.0002 C   0  0  0  0  0  0  0  0  0  0  0  0
    7.3677   -2.5164   -0.0008 Cl  0  0  0  0  0  0  0  0  0  0  0  0
    8.0334    0.1754   -0.0041 C   0  0  0  0  0  0  0  0  0  0  0  0
    7.7235    1.4887   -0.0036 O   0  0  0  0  0  0  0  0  0  0  0  0
    8.8137    2.4125   -0.0076 C   0  0  0  0  0  0  0  0  0  0  0  0
    8.2702    3.8427   -0.0064 C   0  0  0  0  0  0  0  0  0  0  0  0
    9.1984   -0.1746   -0.0077 O   0  0  0  0  0  0  0  0  0  0  0  0
    3.0454    0.3433    0.0121 C   0  0  0  0  0  0  0  0  0  0  0  0
    1.7260    0.7419    0.0056 C   0  0  0  0  0  0  0  0  0  0  0  0
   -1.7260   -0.7419   -0.0033 C   0  0  0  0  0  0  0  0  0  0  0  0
   -3.0454   -0.3433    0.0008 C   0  0  0  0  0  0  0  0  0  0  0  0
   -3.3638    1.0106    0.0022 C   0  0  0  0  0  0  0  0  0  0  0  0
   -4.6995    1.4119    0.0015 N   0  0  0  0  0  0  0  0  0  0  0  0
   -5.7195    0.4514   -0.0002 N   0  0  0  0  0  0  0  0  0  0  0  0
   -6.9690    0.8268   -0.0008 C   0  0  0  0  0  0  0  0  0  0  0  0
   -8.0334   -0.1754   -0.0026 C   0  0  0  0  0  0  0  0  0  0  0  0
   -9.1984    0.1746   -0.0032 O   0  0  0  0  0  0  0  0  0  0  0  0
   -7.7235   -1.4887   -0.0035 O   0  0  0  0  0  0  0  0  0  0  0  0
   -8.8137   -2.4125   -0.0052 C   0  0  0  0  0  0  0  0  0  0  0  0
   -8.2702   -3.8427   -0.0060 C   0  0  0  0  0  0  0  0  0  0  0  0
   -7.3678    2.5164    0.0003 Cl  0  0  0  0  0  0  0  0  0  0  0  0
   -2.6012    3.0157    0.0042 H   0  0  0  0  0  0  0  0  0  0  0  0
   -0.2459    2.3116    0.0055 H   0  0  0  0  0  0  0  0  0  0  0  0
    0.2460   -2.3116    0.0014 H   0  0  0  0  0  0  0  0  0  0  0  0
    2.6012   -3.0157    0.0030 H   0  0  0  0  0  0  0  0  0  0  0  0
    4.9223   -2.3559    0.0071 H   0  0  0  0  0  0  0  0  0  0  0  0
    9.4259    2.2558    0.8805 H   0  0  0  0  0  0  0  0  0  0  0  0
    9.4202    2.2550   -0.8995 H   0  0  0  0  0  0  0  0  0  0  0  0
    7.6579    3.9995   -0.8945 H   0  0  0  0  0  0  0  0  0  0  0  0
    7.6637    4.0002    0.8855 H   0  0  0  0  0  0  0  0  0  0  0  0
    9.1018    4.5474   -0.0094 H   0  0  0  0  0  0  0  0  0  0  0  0
    3.8325    1.0828    0.0178 H   0  0  0  0  0  0  0  0  0  0  0  0
    1.4792    1.7933    0.0063 H   0  0  0  0  0  0  0  0  0  0  0  0
   -1.4792   -1.7933   -0.0082 H   0  0  0  0  0  0  0  0  0  0  0  0
   -3.8325   -1.0828   -0.0012 H   0  0  0  0  0  0  0  0  0  0  0  0
   -4.9223    2.3560    0.0021 H   0  0  0  0  0  0  0  0  0  0  0  0
   -9.4238   -2.2562    0.8845 H   0  0  0  0  0  0  0  0  0  0  0  0
   -9.4223   -2.2546   -0.8955 H   0  0  0  0  0  0  0  0  0  0  0  0
   -7.6601   -3.9991   -0.8956 H   0  0  0  0  0  0  0  0  0  0  0  0
   -7.6615   -4.0006    0.8844 H   0  0  0  0  0  0  0  0  0  0  0  0
   -9.1018   -4.5474   -0.0072 H   0  0  0  0  0  0  0  0  0  0  0  0
  1 21  1  0  0  0  0
  1  2  2  0  0  0  0
  1 31  1  0  0  0  0
  2  3  1  0  0  0  0
  2 32  1  0  0  0  0
  3  4  1  0  0  0  0
  3 19  2  0  0  0  0
  4 18  1  0  0  0  0
  4  5  2  0  0  0  0
  5  6  1  0  0  0  0
  5 33  1  0  0  0  0
  6  7  2  0  0  0  0
  6 34  1  0  0  0  0
  7  8  1  0  0  0  0
  7 17  1  0  0  0  0
  8  9  1  0  0  0  0
  8 35  1  0  0  0  0
  9 10  2  0  0  0  0
 10 11  1  0  0  0  0
 10 12  1  0  0  0  0
 12 13  1  0  0  0  0
 12 16  2  0  0  0  0
 13 14  1  0  0  0  0
 14 15  1  0  0  0  0
 14 36  1  0  0  0  0
 14 37  1  0  0  0  0
 15 38  1  0  0  0  0
 15 39  1  0  0  0  0
 15 40  1  0  0  0  0
 17 18  2  0  0  0  0
 17 41  1  0  0  0  0
 18 42  1  0  0  0  0
 19 20  1  0  0  0  0
 19 43  1  0  0  0  0
 20 21  2  0  0  0  0
 20 44  1  0  0  0  0
 21 22  1  0  0  0  0
 22 23  1  0  0  0  0
 22 45  1  0  0  0  0
 23 24  2  0  0  0  0
 24 25  1  0  0  0  0
 24 30  1  0  0  0  0
 25 26  2  0  0  0  0
 25 27  1  0  0  0  0
 27 28  1  0  0  0  0
 28 29  1  0  0  0  0
 28 46  1  0  0  0  0
 28 47  1  0  0  0  0
 29 48  1  0  0  0  0
 29 49  1  0  0  0  0
 29 50  1  0  0  0  0
M  END
