
  corina  08241209563D 1   1.00000     0.00000 
CORINA 3.49 0024  01.06.2011
 23 26  0  0  0  0  0  0  0  0999 V2000
   -0.0183    1.5004    0.0103 C   0  0  3  0  0  0  0  0  0  0  0  0
    0.0021   -0.0041    0.0020 C   0  0  0  0  0  0  0  0  0  0  0  0
    1.0413   -0.7485   -0.5635 C   0  0  0  0  0  0  0  0  0  0  0  0
    2.2083   -0.0251   -1.1104 C   0  0  0  0  0  0  0  0  0  0  0  0
    2.3690    1.4301   -0.8276 C   0  0  0  0  0  0  0  0  0  0  0  0
    1.3682    2.1051    0.0003 C   0  0  0  0  0  0  0  0  0  0  0  0
    1.6365    3.0980    0.6445 O   0  0  0  0  0  0  0  0  0  0  0  0
    3.5069    1.8156   -1.4559 C   0  0  0  0  0  0  0  0  0  0  0  0
    4.0330    0.7332   -2.0750 N   0  0  3  0  0  0  0  0  0  0  0  0
    3.2525   -0.3731   -1.8650 C   0  0  0  0  0  0  0  0  0  0  0  0
    5.2685    0.7431   -2.8622 C   0  0  0  0  0  0  0  0  0  0  0  0
    6.4573    0.4359   -1.9494 C   0  0  3  0  0  0  0  0  0  0  0  0
    7.7304    0.3230   -2.7905 C   0  0  0  0  0  0  0  0  0  0  0  0
    8.8493   -0.0892   -1.9325 N   0  0  3  0  0  0  0  0  0  0  0  0
   10.0286   -0.4371   -2.7362 C   0  0  0  0  0  0  0  0  0  0  0  0
    9.9412    0.8921   -1.9837 C   0  0  0  0  0  0  0  0  0  0  0  0
    6.6091    1.4881   -0.9945 O   0  0  0  0  0  0  0  0  0  0  0  0
    0.9856   -2.1373   -0.5880 C   0  0  0  0  0  0  0  0  0  0  0  0
   -0.0889   -2.7931   -0.0213 C   0  0  0  0  0  0  0  0  0  0  0  0
   -1.1056   -2.0615    0.5666 C   0  0  0  0  0  0  0  0  0  0  0  0
   -1.0619   -0.6819    0.5764 C   0  0  0  0  0  0  0  0  0  0  0  0
   -0.7795    1.9904   -1.2232 C   0  0  0  0  0  0  0  0  0  0  0  0
   -0.7557    1.9771    1.2632 C   0  0  0  0  0  0  0  0  0  0  0  0
  1  2  1  0  0  0  0
  3  2  2  0  0  0  0
  3  4  1  0  0  0  0
  5  4  1  0  0  0  0
  5  6  1  0  0  0  0
  1  6  1  0  0  0  0
  6  7  2  0  0  0  0
  8  5  2  0  0  0  0
  9  8  1  0  0  0  0
 10  9  1  0  0  0  0
  4 10  2  0  0  0  0
  9 11  1  0  0  0  0
 12 11  1  0  0  0  0
 12 13  1  0  0  0  0
 13 14  1  0  0  0  0
 15 14  1  0  0  0  0
 16 15  1  0  0  0  0
 14 16  1  0  0  0  0
 12 17  1  0  0  0  0
 18  3  1  0  0  0  0
 19 18  2  0  0  0  0
 20 19  1  0  0  0  0
 21 20  2  0  0  0  0
  2 21  1  0  0  0  0
  1 22  1  0  0  0  0
  1 23  1  0  0  0  0
M  END
$$$$
