m483.mol
  corina  12080917093D 1   1.00000     0.00000 
CORINA 3.46 0026  05.08.2008
 24 26  0  0  0  0  0  0  0  0999 V2000
   -0.0167    1.3768    0.0096 C   0  0  0  0  0  0  0  0  0  0  0  0
    0.0021   -0.0041    0.0020 C   0  0  0  0  0  0  0  0  0  0  0  0
    1.2152   -0.6806   -0.0132 C   0  0  0  0  0  0  0  0  0  0  0  0
    2.4059    0.0349   -0.0208 C   0  0  0  0  0  0  0  0  0  0  0  0
    2.3799    1.4157   -0.0132 C   0  0  0  0  0  0  0  0  0  0  0  0
    1.1705    2.0860    0.0021 C   0  0  0  0  0  0  0  0  0  0  0  0
    1.1461    3.5928    0.0099 C   0  0  0  0  0  0  0  0  0  0  0  0
    1.2378   -2.0771   -0.0205 N   0  0  0  0  0  0  0  0  0  0  0  0
    2.5182   -2.7889   -0.0366 C   0  0  0  0  0  0  0  0  0  0  0  0
   -0.0188   -2.8301   -0.0120 C   0  0  0  0  0  0  0  0  0  0  0  0
    2.9711   -3.0402    1.3786 C   0  0  0  0  0  0  0  0  0  0  0  0
   -0.4636   -3.0811   -1.4298 C   0  0  0  0  0  0  0  0  0  0  0  0
    3.6385   -2.2029    2.1306 N   0  0  0  0  0  0  0  0  0  0  0  0
    3.8641   -2.8131    3.3712 N   0  0  0  0  0  0  0  0  0  0  0  0
    3.3095   -4.0429    3.3362 C   0  0  0  0  0  0  0  0  0  0  0  0
    2.7453   -4.2063    2.1172 C   0  0  0  0  0  0  0  0  0  0  0  0
   -0.2051   -4.2340   -2.1785 C   0  0  0  0  0  0  0  0  0  0  0  0
   -0.7699   -4.0740   -3.3977 C   0  0  0  0  0  0  0  0  0  0  0  0
   -1.3647   -2.8628   -3.4197 N   0  0  0  0  0  0  0  0  0  0  0  0
   -1.1631   -2.2607   -2.1711 N   0  0  0  0  0  0  0  0  0  0  0  0
    3.3127   -5.0512    4.4562 C   0  0  0  0  0  0  0  0  0  0  0  0
    4.5766   -2.2209    4.5060 C   0  0  0  0  0  0  0  0  0  0  0  0
   -2.0967   -2.2825   -4.5483 C   0  0  0  0  0  0  0  0  0  0  0  0
   -0.7397   -5.0697   -4.5285 C   0  0  0  0  0  0  0  0  0  0  0  0
  1  2  2  0  0  0
  2  3  1  0  0  0
  3  4  2  0  0  0
  4  5  1  0  0  0
  5  6  2  0  0  0
  6  1  1  0  0  0
  6  7  1  0  0  0
  3  8  1  0  0  0
  8  9  1  0  0  0
  8 10  1  0  0  0
  9 11  1  0  0  0
 10 12  1  0  0  0
 11 13  2  0  0  0
 13 14  1  0  0  0
 14 15  1  0  0  0
 15 16  2  0  0  0
 16 11  1  0  0  0
 12 17  1  0  0  0
 17 18  2  0  0  0
 18 19  1  0  0  0
 19 20  1  0  0  0
 20 12  2  0  0  0
 15 21  1  0  0  0
 14 22  1  0  0  0
 19 23  1  0  0  0
 18 24  1  0  0  0
M  END
$$$$
